<nodes>
    <node id="1" x="0.0" y="0.0" type="priority"/>
    <node id="2" x="0.0" y="-600.0" type="priority"/>

    <node id="3" x="90.0" y="0.0" type="priority"/>
    <node id="4" x="90.0" y="-600.0" type="priority"/>

    <node id="5" x="180.0" y="0.0" type="priority"/>
    <node id="6" x="180.0" y="-600.0" type="priority"/>

    <node id="7" x="270.0" y="0.0" type="priority"/>
    <node id="8" x="270.0" y="-600.0" type="priority"/>

    <node id="9" x="360.0" y="0.0" type="priority"/>
    <node id="10" x="360.0" y="-600.0" type="priority"/>
</nodes>