<?xml version="1.0" encoding="UTF-8"?>

<!-- generated on 10/15/20 00:25:45 by Eclipse SUMO netconvert Version 1.7.0
<configuration xmlns:xsi="http://www.w3.org/2001/XMLSchema-instance" xsi:noNamespaceSchemaLocation="http://sumo.dlr.de/xsd/netconvertConfiguration.xsd">

    <input>
        <node-files value="sumotest.nod.xml"/>
        <edge-files value="sumotest.edg.xml"/>
    </input>

    <output>
        <output-file value="sumotest.net.xml"/>
    </output>

    <report>
        <aggregate-warnings value="5"/>
    </report>

</configuration>
-->

<net version="1.6" junctionCornerDetail="5" limitTurnSpeed="5.50" xmlns:xsi="http://www.w3.org/2001/XMLSchema-instance" xsi:noNamespaceSchemaLocation="http://sumo.dlr.de/xsd/net_file.xsd">

    <location netOffset="0.00,600.00" convBoundary="0.00,0.00,360.00,600.00" origBoundary="0.00,-600.00,360.00,0.00" projParameter="!"/>

    <edge id=":1_0" function="internal">
        <lane id=":1_0_0" index="0" speed="3.90" length="2.58" shape="17.60,580.80 17.70,581.50 18.00,582.00 18.50,582.30 19.20,582.40"/>
    </edge>
    <edge id=":1_1" function="internal">
        <lane id=":1_1_0" index="0" speed="6.08" length="7.74" shape="14.40,580.80 14.70,582.90 15.60,584.40 17.10,585.30 19.20,585.60"/>
    </edge>
    <edge id=":1_2" function="internal">
        <lane id=":1_2_0" index="0" speed="7.66" length="12.90" shape="11.20,580.80 11.70,584.30 13.20,586.80 15.70,588.30 19.20,588.80"/>
    </edge>
    <edge id=":1_3" function="internal">
        <lane id=":1_3_0" index="0" speed="8.96" length="18.06" shape="8.00,580.80 8.70,585.70 10.80,589.20 14.30,591.30 19.20,592.00"/>
    </edge>
    <edge id=":1_4" function="internal">
        <lane id=":1_4_0" index="0" speed="10.10" length="23.22" shape="4.80,580.80 5.70,587.10 8.40,591.60 12.90,594.30 19.20,595.20"/>
    </edge>
    <edge id=":1_5" function="internal">
        <lane id=":1_5_0" index="0" speed="11.12" length="28.38" shape="1.60,580.80 2.70,588.50 6.00,594.00 11.50,597.30 19.20,598.40"/>
    </edge>
    <edge id=":10_0" function="internal">
        <lane id=":10_0_0" index="0" speed="11.12" length="28.38" shape="360.00,-17.60 367.70,-16.50 373.20,-13.20 376.50,-7.70 377.60,0.00"/>
    </edge>
    <edge id=":10_1" function="internal">
        <lane id=":10_1_0" index="0" speed="10.10" length="23.22" shape="360.00,-14.40 366.30,-13.50 370.80,-10.80 373.50,-6.30 374.40,0.00"/>
    </edge>
    <edge id=":10_2" function="internal">
        <lane id=":10_2_0" index="0" speed="8.96" length="18.06" shape="360.00,-11.20 364.90,-10.50 368.40,-8.40 370.50,-4.90 371.20,0.00"/>
    </edge>
    <edge id=":10_3" function="internal">
        <lane id=":10_3_0" index="0" speed="7.66" length="12.90" shape="360.00,-8.00 363.50,-7.50 366.00,-6.00 367.50,-3.50 368.00,0.00"/>
    </edge>
    <edge id=":10_4" function="internal">
        <lane id=":10_4_0" index="0" speed="6.08" length="7.74" shape="360.00,-4.80 362.10,-4.50 363.60,-3.60 364.50,-2.10 364.80,0.00"/>
    </edge>
    <edge id=":10_5" function="internal">
        <lane id=":10_5_0" index="0" speed="3.90" length="2.58" shape="360.00,-1.60 360.70,-1.50 361.20,-1.20 361.50,-0.70 361.60,0.00"/>
    </edge>
    <edge id=":3_0" function="internal">
        <lane id=":3_0_0" index="0" speed="6.51" length="9.03" shape="107.60,576.80 107.95,579.25 109.00,581.00 110.75,582.05 113.20,582.40"/>
    </edge>
    <edge id=":3_1" function="internal">
        <lane id=":3_1_0" index="0" speed="8.00" length="14.19" shape="104.40,576.80 104.95,580.65 106.60,583.40 109.35,585.05 113.20,585.60"/>
    </edge>
    <edge id=":3_2" function="internal">
        <lane id=":3_2_0" index="0" speed="9.26" length="19.35" shape="101.20,576.80 101.95,582.05 104.20,585.80 107.95,588.05 113.20,588.80"/>
    </edge>
    <edge id=":3_3" function="internal">
        <lane id=":3_3_0" index="0" speed="10.36" length="24.51" shape="98.00,576.80 98.95,583.45 101.80,588.20 106.55,591.05 113.20,592.00"/>
    </edge>
    <edge id=":3_4" function="internal">
        <lane id=":3_4_0" index="0" speed="11.36" length="29.67" shape="94.80,576.80 95.95,584.85 99.40,590.60 105.15,594.05 113.20,595.20"/>
    </edge>
    <edge id=":3_5" function="internal">
        <lane id=":3_5_0" index="0" speed="12.28" length="34.84" shape="91.60,576.80 92.95,586.25 97.00,593.00 103.75,597.05 113.20,598.40"/>
    </edge>
    <edge id=":3_6" function="internal">
        <lane id=":3_6_0" index="0" speed="40.00" length="27.20" shape="86.00,582.40 113.20,582.40"/>
        <lane id=":3_6_1" index="1" speed="40.00" length="27.20" shape="86.00,585.60 113.20,585.60"/>
        <lane id=":3_6_2" index="2" speed="40.00" length="27.20" shape="86.00,588.80 113.20,588.80"/>
        <lane id=":3_6_3" index="3" speed="40.00" length="27.20" shape="86.00,592.00 113.20,592.00"/>
        <lane id=":3_6_4" index="4" speed="40.00" length="27.20" shape="86.00,595.20 113.20,595.20"/>
        <lane id=":3_6_5" index="5" speed="40.00" length="27.20" shape="86.00,598.40 113.20,598.40"/>
    </edge>
    <edge id=":4_0" function="internal">
        <lane id=":4_0_0" index="0" speed="40.00" length="27.20" shape="86.00,-17.60 113.20,-17.60"/>
        <lane id=":4_0_1" index="1" speed="40.00" length="27.20" shape="86.00,-14.40 113.20,-14.40"/>
        <lane id=":4_0_2" index="2" speed="40.00" length="27.20" shape="86.00,-11.20 113.20,-11.20"/>
        <lane id=":4_0_3" index="3" speed="40.00" length="27.20" shape="86.00,-8.00 113.20,-8.00"/>
        <lane id=":4_0_4" index="4" speed="40.00" length="27.20" shape="86.00,-4.80 113.20,-4.80"/>
        <lane id=":4_0_5" index="5" speed="40.00" length="27.20" shape="86.00,-1.60 113.20,-1.60"/>
    </edge>
    <edge id=":4_6" function="internal">
        <lane id=":4_6_0" index="0" speed="10.16" length="23.50" shape="86.00,-1.60 95.45,-1.25 102.20,-0.20 106.25,1.55 107.60,4.00"/>
    </edge>
    <edge id=":4_7" function="internal">
        <lane id=":4_7_0" index="0" speed="9.51" length="20.48" shape="86.00,-1.60 94.05,-1.25 99.80,-0.20 103.25,1.55 104.40,4.00"/>
    </edge>
    <edge id=":4_8" function="internal">
        <lane id=":4_8_0" index="0" speed="8.83" length="17.50" shape="86.00,-1.60 92.65,-1.25 97.40,-0.20 100.25,1.55 101.20,4.00"/>
    </edge>
    <edge id=":4_9" function="internal">
        <lane id=":4_9_0" index="0" speed="8.10" length="14.57" shape="86.00,-1.60 91.25,-1.25 95.00,-0.20 97.25,1.55 98.00,4.00"/>
    </edge>
    <edge id=":4_10" function="internal">
        <lane id=":4_10_0" index="0" speed="7.33" length="11.73" shape="86.00,-1.60 89.85,-1.25 92.60,-0.20 94.25,1.55 94.80,4.00"/>
    </edge>
    <edge id=":4_11" function="internal">
        <lane id=":4_11_0" index="0" speed="6.51" length="9.03" shape="86.00,-1.60 88.45,-1.25 90.20,-0.20 91.25,1.55 91.60,4.00"/>
    </edge>
    <edge id=":5_0" function="internal">
        <lane id=":5_0_0" index="0" speed="6.51" length="9.03" shape="197.60,576.80 197.95,579.25 199.00,581.00 200.75,582.05 203.20,582.40"/>
    </edge>
    <edge id=":5_1" function="internal">
        <lane id=":5_1_0" index="0" speed="8.00" length="14.19" shape="194.40,576.80 194.95,580.65 196.60,583.40 199.35,585.05 203.20,585.60"/>
    </edge>
    <edge id=":5_2" function="internal">
        <lane id=":5_2_0" index="0" speed="9.26" length="19.35" shape="191.20,576.80 191.95,582.05 194.20,585.80 197.95,588.05 203.20,588.80"/>
    </edge>
    <edge id=":5_3" function="internal">
        <lane id=":5_3_0" index="0" speed="10.36" length="24.51" shape="188.00,576.80 188.95,583.45 191.80,588.20 196.55,591.05 203.20,592.00"/>
    </edge>
    <edge id=":5_4" function="internal">
        <lane id=":5_4_0" index="0" speed="11.36" length="29.67" shape="184.80,576.80 185.95,584.85 189.40,590.60 195.15,594.05 203.20,595.20"/>
    </edge>
    <edge id=":5_5" function="internal">
        <lane id=":5_5_0" index="0" speed="12.28" length="34.84" shape="181.60,576.80 182.95,586.25 187.00,593.00 193.75,597.05 203.20,598.40"/>
    </edge>
    <edge id=":5_6" function="internal">
        <lane id=":5_6_0" index="0" speed="40.00" length="27.20" shape="176.00,582.40 203.20,582.40"/>
        <lane id=":5_6_1" index="1" speed="40.00" length="27.20" shape="176.00,585.60 203.20,585.60"/>
        <lane id=":5_6_2" index="2" speed="40.00" length="27.20" shape="176.00,588.80 203.20,588.80"/>
        <lane id=":5_6_3" index="3" speed="40.00" length="27.20" shape="176.00,592.00 203.20,592.00"/>
        <lane id=":5_6_4" index="4" speed="40.00" length="27.20" shape="176.00,595.20 203.20,595.20"/>
        <lane id=":5_6_5" index="5" speed="40.00" length="27.20" shape="176.00,598.40 203.20,598.40"/>
    </edge>
    <edge id=":6_0" function="internal">
        <lane id=":6_0_0" index="0" speed="40.00" length="27.20" shape="176.00,-17.60 203.20,-17.60"/>
        <lane id=":6_0_1" index="1" speed="40.00" length="27.20" shape="176.00,-14.40 203.20,-14.40"/>
        <lane id=":6_0_2" index="2" speed="40.00" length="27.20" shape="176.00,-11.20 203.20,-11.20"/>
        <lane id=":6_0_3" index="3" speed="40.00" length="27.20" shape="176.00,-8.00 203.20,-8.00"/>
        <lane id=":6_0_4" index="4" speed="40.00" length="27.20" shape="176.00,-4.80 203.20,-4.80"/>
        <lane id=":6_0_5" index="5" speed="40.00" length="27.20" shape="176.00,-1.60 203.20,-1.60"/>
    </edge>
    <edge id=":6_6" function="internal">
        <lane id=":6_6_0" index="0" speed="10.16" length="23.50" shape="176.00,-1.60 185.45,-1.25 192.20,-0.20 196.25,1.55 197.60,4.00"/>
    </edge>
    <edge id=":6_7" function="internal">
        <lane id=":6_7_0" index="0" speed="9.51" length="20.48" shape="176.00,-1.60 184.05,-1.25 189.80,-0.20 193.25,1.55 194.40,4.00"/>
    </edge>
    <edge id=":6_8" function="internal">
        <lane id=":6_8_0" index="0" speed="8.83" length="17.50" shape="176.00,-1.60 182.65,-1.25 187.40,-0.20 190.25,1.55 191.20,4.00"/>
    </edge>
    <edge id=":6_9" function="internal">
        <lane id=":6_9_0" index="0" speed="8.10" length="14.57" shape="176.00,-1.60 181.25,-1.25 185.00,-0.20 187.25,1.55 188.00,4.00"/>
    </edge>
    <edge id=":6_10" function="internal">
        <lane id=":6_10_0" index="0" speed="7.33" length="11.73" shape="176.00,-1.60 179.85,-1.25 182.60,-0.20 184.25,1.55 184.80,4.00"/>
    </edge>
    <edge id=":6_11" function="internal">
        <lane id=":6_11_0" index="0" speed="6.51" length="9.03" shape="176.00,-1.60 178.45,-1.25 180.20,-0.20 181.25,1.55 181.60,4.00"/>
    </edge>
    <edge id=":7_0" function="internal">
        <lane id=":7_0_0" index="0" speed="6.51" length="9.03" shape="287.60,576.80 287.95,579.25 289.00,581.00 290.75,582.05 293.20,582.40"/>
    </edge>
    <edge id=":7_1" function="internal">
        <lane id=":7_1_0" index="0" speed="8.00" length="14.19" shape="284.40,576.80 284.95,580.65 286.60,583.40 289.35,585.05 293.20,585.60"/>
    </edge>
    <edge id=":7_2" function="internal">
        <lane id=":7_2_0" index="0" speed="9.26" length="19.35" shape="281.20,576.80 281.95,582.05 284.20,585.80 287.95,588.05 293.20,588.80"/>
    </edge>
    <edge id=":7_3" function="internal">
        <lane id=":7_3_0" index="0" speed="10.36" length="24.51" shape="278.00,576.80 278.95,583.45 281.80,588.20 286.55,591.05 293.20,592.00"/>
    </edge>
    <edge id=":7_4" function="internal">
        <lane id=":7_4_0" index="0" speed="11.36" length="29.67" shape="274.80,576.80 275.95,584.85 279.40,590.60 285.15,594.05 293.20,595.20"/>
    </edge>
    <edge id=":7_5" function="internal">
        <lane id=":7_5_0" index="0" speed="12.28" length="34.84" shape="271.60,576.80 272.95,586.25 277.00,593.00 283.75,597.05 293.20,598.40"/>
    </edge>
    <edge id=":7_6" function="internal">
        <lane id=":7_6_0" index="0" speed="40.00" length="27.20" shape="266.00,582.40 293.20,582.40"/>
        <lane id=":7_6_1" index="1" speed="40.00" length="27.20" shape="266.00,585.60 293.20,585.60"/>
        <lane id=":7_6_2" index="2" speed="40.00" length="27.20" shape="266.00,588.80 293.20,588.80"/>
        <lane id=":7_6_3" index="3" speed="40.00" length="27.20" shape="266.00,592.00 293.20,592.00"/>
        <lane id=":7_6_4" index="4" speed="40.00" length="27.20" shape="266.00,595.20 293.20,595.20"/>
        <lane id=":7_6_5" index="5" speed="40.00" length="27.20" shape="266.00,598.40 293.20,598.40"/>
    </edge>
    <edge id=":8_0" function="internal">
        <lane id=":8_0_0" index="0" speed="40.00" length="27.20" shape="266.00,-17.60 293.20,-17.60"/>
        <lane id=":8_0_1" index="1" speed="40.00" length="27.20" shape="266.00,-14.40 293.20,-14.40"/>
        <lane id=":8_0_2" index="2" speed="40.00" length="27.20" shape="266.00,-11.20 293.20,-11.20"/>
        <lane id=":8_0_3" index="3" speed="40.00" length="27.20" shape="266.00,-8.00 293.20,-8.00"/>
        <lane id=":8_0_4" index="4" speed="40.00" length="27.20" shape="266.00,-4.80 293.20,-4.80"/>
        <lane id=":8_0_5" index="5" speed="40.00" length="27.20" shape="266.00,-1.60 293.20,-1.60"/>
    </edge>
    <edge id=":8_6" function="internal">
        <lane id=":8_6_0" index="0" speed="10.16" length="23.50" shape="266.00,-1.60 275.45,-1.25 282.20,-0.20 286.25,1.55 287.60,4.00"/>
    </edge>
    <edge id=":8_7" function="internal">
        <lane id=":8_7_0" index="0" speed="9.51" length="20.48" shape="266.00,-1.60 274.05,-1.25 279.80,-0.20 283.25,1.55 284.40,4.00"/>
    </edge>
    <edge id=":8_8" function="internal">
        <lane id=":8_8_0" index="0" speed="8.83" length="17.50" shape="266.00,-1.60 272.65,-1.25 277.40,-0.20 280.25,1.55 281.20,4.00"/>
    </edge>
    <edge id=":8_9" function="internal">
        <lane id=":8_9_0" index="0" speed="8.10" length="14.57" shape="266.00,-1.60 271.25,-1.25 275.00,-0.20 277.25,1.55 278.00,4.00"/>
    </edge>
    <edge id=":8_10" function="internal">
        <lane id=":8_10_0" index="0" speed="7.33" length="11.73" shape="266.00,-1.60 269.85,-1.25 272.60,-0.20 274.25,1.55 274.80,4.00"/>
    </edge>
    <edge id=":8_11" function="internal">
        <lane id=":8_11_0" index="0" speed="6.51" length="9.03" shape="266.00,-1.60 268.45,-1.25 270.20,-0.20 271.25,1.55 271.60,4.00"/>
    </edge>

    <edge id="e1" from="2" to="1" priority="2">
        <lane id="e1_0" index="0" speed="40.00" length="579.30" shape="17.60,1.50 17.60,580.80"/>
        <lane id="e1_1" index="1" speed="40.00" length="579.30" shape="14.40,1.50 14.40,580.80"/>
        <lane id="e1_2" index="2" speed="40.00" length="579.30" shape="11.20,1.50 11.20,580.80"/>
        <lane id="e1_3" index="3" speed="40.00" length="579.30" shape="8.00,1.50 8.00,580.80"/>
        <lane id="e1_4" index="4" speed="40.00" length="579.30" shape="4.80,1.50 4.80,580.80"/>
        <lane id="e1_5" index="5" speed="40.00" length="579.30" shape="1.60,1.50 1.60,580.80"/>
    </edge>
    <edge id="e10" from="2" to="4" priority="2">
        <lane id="e10_0" index="0" speed="40.00" length="65.30" shape="20.70,-17.60 86.00,-17.60"/>
        <lane id="e10_1" index="1" speed="40.00" length="65.30" shape="20.70,-14.40 86.00,-14.40"/>
        <lane id="e10_2" index="2" speed="40.00" length="65.30" shape="20.70,-11.20 86.00,-11.20"/>
        <lane id="e10_3" index="3" speed="40.00" length="65.30" shape="20.70,-8.00 86.00,-8.00"/>
        <lane id="e10_4" index="4" speed="40.00" length="65.30" shape="20.70,-4.80 86.00,-4.80"/>
        <lane id="e10_5" index="5" speed="40.00" length="65.30" shape="20.70,-1.60 86.00,-1.60"/>
    </edge>
    <edge id="e11" from="4" to="6" priority="2">
        <lane id="e11_0" index="0" speed="40.00" length="62.80" shape="113.20,-17.60 176.00,-17.60"/>
        <lane id="e11_1" index="1" speed="40.00" length="62.80" shape="113.20,-14.40 176.00,-14.40"/>
        <lane id="e11_2" index="2" speed="40.00" length="62.80" shape="113.20,-11.20 176.00,-11.20"/>
        <lane id="e11_3" index="3" speed="40.00" length="62.80" shape="113.20,-8.00 176.00,-8.00"/>
        <lane id="e11_4" index="4" speed="40.00" length="62.80" shape="113.20,-4.80 176.00,-4.80"/>
        <lane id="e11_5" index="5" speed="40.00" length="62.80" shape="113.20,-1.60 176.00,-1.60"/>
    </edge>
    <edge id="e12" from="6" to="8" priority="2">
        <lane id="e12_0" index="0" speed="40.00" length="62.80" shape="203.20,-17.60 266.00,-17.60"/>
        <lane id="e12_1" index="1" speed="40.00" length="62.80" shape="203.20,-14.40 266.00,-14.40"/>
        <lane id="e12_2" index="2" speed="40.00" length="62.80" shape="203.20,-11.20 266.00,-11.20"/>
        <lane id="e12_3" index="3" speed="40.00" length="62.80" shape="203.20,-8.00 266.00,-8.00"/>
        <lane id="e12_4" index="4" speed="40.00" length="62.80" shape="203.20,-4.80 266.00,-4.80"/>
        <lane id="e12_5" index="5" speed="40.00" length="62.80" shape="203.20,-1.60 266.00,-1.60"/>
    </edge>
    <edge id="e13" from="8" to="10" priority="2">
        <lane id="e13_0" index="0" speed="40.00" length="66.80" shape="293.20,-17.60 360.00,-17.60"/>
        <lane id="e13_1" index="1" speed="40.00" length="66.80" shape="293.20,-14.40 360.00,-14.40"/>
        <lane id="e13_2" index="2" speed="40.00" length="66.80" shape="293.20,-11.20 360.00,-11.20"/>
        <lane id="e13_3" index="3" speed="40.00" length="66.80" shape="293.20,-8.00 360.00,-8.00"/>
        <lane id="e13_4" index="4" speed="40.00" length="66.80" shape="293.20,-4.80 360.00,-4.80"/>
        <lane id="e13_5" index="5" speed="40.00" length="66.80" shape="293.20,-1.60 360.00,-1.60"/>
    </edge>
    <edge id="e2" from="4" to="3" priority="2">
        <lane id="e2_0" index="0" speed="40.00" length="572.80" shape="107.60,4.00 107.60,576.80"/>
        <lane id="e2_1" index="1" speed="40.00" length="572.80" shape="104.40,4.00 104.40,576.80"/>
        <lane id="e2_2" index="2" speed="40.00" length="572.80" shape="101.20,4.00 101.20,576.80"/>
        <lane id="e2_3" index="3" speed="40.00" length="572.80" shape="98.00,4.00 98.00,576.80"/>
        <lane id="e2_4" index="4" speed="40.00" length="572.80" shape="94.80,4.00 94.80,576.80"/>
        <lane id="e2_5" index="5" speed="40.00" length="572.80" shape="91.60,4.00 91.60,576.80"/>
    </edge>
    <edge id="e3" from="6" to="5" priority="2">
        <lane id="e3_0" index="0" speed="40.00" length="572.80" shape="197.60,4.00 197.60,576.80"/>
        <lane id="e3_1" index="1" speed="40.00" length="572.80" shape="194.40,4.00 194.40,576.80"/>
        <lane id="e3_2" index="2" speed="40.00" length="572.80" shape="191.20,4.00 191.20,576.80"/>
        <lane id="e3_3" index="3" speed="40.00" length="572.80" shape="188.00,4.00 188.00,576.80"/>
        <lane id="e3_4" index="4" speed="40.00" length="572.80" shape="184.80,4.00 184.80,576.80"/>
        <lane id="e3_5" index="5" speed="40.00" length="572.80" shape="181.60,4.00 181.60,576.80"/>
    </edge>
    <edge id="e4" from="8" to="7" priority="2">
        <lane id="e4_0" index="0" speed="40.00" length="572.80" shape="287.60,4.00 287.60,576.80"/>
        <lane id="e4_1" index="1" speed="40.00" length="572.80" shape="284.40,4.00 284.40,576.80"/>
        <lane id="e4_2" index="2" speed="40.00" length="572.80" shape="281.20,4.00 281.20,576.80"/>
        <lane id="e4_3" index="3" speed="40.00" length="572.80" shape="278.00,4.00 278.00,576.80"/>
        <lane id="e4_4" index="4" speed="40.00" length="572.80" shape="274.80,4.00 274.80,576.80"/>
        <lane id="e4_5" index="5" speed="40.00" length="572.80" shape="271.60,4.00 271.60,576.80"/>
    </edge>
    <edge id="e5" from="10" to="9" priority="2">
        <lane id="e5_0" index="0" speed="40.00" length="579.30" shape="377.60,0.00 377.60,579.30"/>
        <lane id="e5_1" index="1" speed="40.00" length="579.30" shape="374.40,0.00 374.40,579.30"/>
        <lane id="e5_2" index="2" speed="40.00" length="579.30" shape="371.20,0.00 371.20,579.30"/>
        <lane id="e5_3" index="3" speed="40.00" length="579.30" shape="368.00,0.00 368.00,579.30"/>
        <lane id="e5_4" index="4" speed="40.00" length="579.30" shape="364.80,0.00 364.80,579.30"/>
        <lane id="e5_5" index="5" speed="40.00" length="579.30" shape="361.60,0.00 361.60,579.30"/>
    </edge>
    <edge id="e6" from="1" to="3" priority="2">
        <lane id="e6_0" index="0" speed="40.00" length="66.80" shape="19.20,582.40 86.00,582.40"/>
        <lane id="e6_1" index="1" speed="40.00" length="66.80" shape="19.20,585.60 86.00,585.60"/>
        <lane id="e6_2" index="2" speed="40.00" length="66.80" shape="19.20,588.80 86.00,588.80"/>
        <lane id="e6_3" index="3" speed="40.00" length="66.80" shape="19.20,592.00 86.00,592.00"/>
        <lane id="e6_4" index="4" speed="40.00" length="66.80" shape="19.20,595.20 86.00,595.20"/>
        <lane id="e6_5" index="5" speed="40.00" length="66.80" shape="19.20,598.40 86.00,598.40"/>
    </edge>
    <edge id="e7" from="3" to="5" priority="2">
        <lane id="e7_0" index="0" speed="40.00" length="62.80" shape="113.20,582.40 176.00,582.40"/>
        <lane id="e7_1" index="1" speed="40.00" length="62.80" shape="113.20,585.60 176.00,585.60"/>
        <lane id="e7_2" index="2" speed="40.00" length="62.80" shape="113.20,588.80 176.00,588.80"/>
        <lane id="e7_3" index="3" speed="40.00" length="62.80" shape="113.20,592.00 176.00,592.00"/>
        <lane id="e7_4" index="4" speed="40.00" length="62.80" shape="113.20,595.20 176.00,595.20"/>
        <lane id="e7_5" index="5" speed="40.00" length="62.80" shape="113.20,598.40 176.00,598.40"/>
    </edge>
    <edge id="e8" from="5" to="7" priority="2">
        <lane id="e8_0" index="0" speed="40.00" length="62.80" shape="203.20,582.40 266.00,582.40"/>
        <lane id="e8_1" index="1" speed="40.00" length="62.80" shape="203.20,585.60 266.00,585.60"/>
        <lane id="e8_2" index="2" speed="40.00" length="62.80" shape="203.20,588.80 266.00,588.80"/>
        <lane id="e8_3" index="3" speed="40.00" length="62.80" shape="203.20,592.00 266.00,592.00"/>
        <lane id="e8_4" index="4" speed="40.00" length="62.80" shape="203.20,595.20 266.00,595.20"/>
        <lane id="e8_5" index="5" speed="40.00" length="62.80" shape="203.20,598.40 266.00,598.40"/>
    </edge>
    <edge id="e9" from="7" to="9" priority="2">
        <lane id="e9_0" index="0" speed="40.00" length="65.30" shape="293.20,582.40 358.50,582.40"/>
        <lane id="e9_1" index="1" speed="40.00" length="65.30" shape="293.20,585.60 358.50,585.60"/>
        <lane id="e9_2" index="2" speed="40.00" length="65.30" shape="293.20,588.80 358.50,588.80"/>
        <lane id="e9_3" index="3" speed="40.00" length="65.30" shape="293.20,592.00 358.50,592.00"/>
        <lane id="e9_4" index="4" speed="40.00" length="65.30" shape="293.20,595.20 358.50,595.20"/>
        <lane id="e9_5" index="5" speed="40.00" length="65.30" shape="293.20,598.40 358.50,598.40"/>
    </edge>

    <junction id="1" type="priority" x="0.00" y="600.00" incLanes="e1_0 e1_1 e1_2 e1_3 e1_4 e1_5" intLanes=":1_0_0 :1_1_0 :1_2_0 :1_3_0 :1_4_0 :1_5_0" shape="19.20,600.00 19.20,580.80 0.00,580.80 0.53,586.67 2.13,591.47 4.80,595.20 8.53,597.87 13.33,599.47">
        <request index="0" response="000000" foes="000000" cont="0"/>
        <request index="1" response="000000" foes="000000" cont="0"/>
        <request index="2" response="000000" foes="000000" cont="0"/>
        <request index="3" response="000000" foes="000000" cont="0"/>
        <request index="4" response="000000" foes="000000" cont="0"/>
        <request index="5" response="000000" foes="000000" cont="0"/>
    </junction>
    <junction id="10" type="priority" x="360.00" y="0.00" incLanes="e13_0 e13_1 e13_2 e13_3 e13_4 e13_5" intLanes=":10_0_0 :10_1_0 :10_2_0 :10_3_0 :10_4_0 :10_5_0" shape="360.00,0.00 379.20,0.00 378.67,-5.87 377.07,-10.67 374.40,-14.40 370.67,-17.07 365.87,-18.67 360.00,-19.20">
        <request index="0" response="000000" foes="000000" cont="0"/>
        <request index="1" response="000000" foes="000000" cont="0"/>
        <request index="2" response="000000" foes="000000" cont="0"/>
        <request index="3" response="000000" foes="000000" cont="0"/>
        <request index="4" response="000000" foes="000000" cont="0"/>
        <request index="5" response="000000" foes="000000" cont="0"/>
    </junction>
    <junction id="2" type="dead_end" x="0.00" y="0.00" incLanes="" intLanes="" shape="0.00,1.50 19.20,1.50 19.37,0.67 19.57,0.38 19.87,0.17 20.24,0.04 20.70,0.00 20.70,-19.20 14.37,-18.63 9.20,-16.90 5.17,-14.03 2.30,-10.00 0.58,-4.83"/>
    <junction id="3" type="priority" x="90.00" y="600.00" incLanes="e2_0 e2_1 e2_2 e2_3 e2_4 e2_5 e6_0 e6_1 e6_2 e6_3 e6_4 e6_5" intLanes=":3_0_0 :3_1_0 :3_2_0 :3_3_0 :3_4_0 :3_5_0 :3_6_0 :3_6_1 :3_6_2 :3_6_3 :3_6_4 :3_6_5" shape="113.20,600.00 113.20,580.80 110.98,580.36 110.20,579.80 109.64,579.02 109.31,578.02 109.20,576.80 90.00,576.80 89.56,579.02 89.00,579.80 88.22,580.36 87.22,580.69 86.00,580.80 86.00,600.00">
        <request index="0"  response="000000000000" foes="111111000000" cont="0"/>
        <request index="1"  response="000000000000" foes="111111000000" cont="0"/>
        <request index="2"  response="000000000000" foes="111111000000" cont="0"/>
        <request index="3"  response="000000000000" foes="111111000000" cont="0"/>
        <request index="4"  response="000000000000" foes="111111000000" cont="0"/>
        <request index="5"  response="000000000000" foes="111111000000" cont="0"/>
        <request index="6"  response="000000111111" foes="000000111111" cont="0"/>
        <request index="7"  response="000000111111" foes="000000111111" cont="0"/>
        <request index="8"  response="000000111111" foes="000000111111" cont="0"/>
        <request index="9"  response="000000111111" foes="000000111111" cont="0"/>
        <request index="10" response="000000111111" foes="000000111111" cont="0"/>
        <request index="11" response="000000111111" foes="000000111111" cont="0"/>
    </junction>
    <junction id="4" type="priority" x="90.00" y="0.00" incLanes="e10_0 e10_1 e10_2 e10_3 e10_4 e10_5" intLanes=":4_0_0 :4_0_1 :4_0_2 :4_0_3 :4_0_4 :4_0_5 :4_6_0 :4_7_0 :4_8_0 :4_9_0 :4_10_0 :4_11_0" shape="90.00,4.00 109.20,4.00 109.64,1.78 110.20,1.00 110.98,0.44 111.98,0.11 113.20,0.00 113.20,-19.20 86.00,-19.20 86.00,0.00 88.22,0.44 89.00,1.00 89.56,1.78 89.89,2.78">
        <request index="0"  response="000000000000" foes="000000000000" cont="0"/>
        <request index="1"  response="000000000000" foes="000000000000" cont="0"/>
        <request index="2"  response="000000000000" foes="000000000000" cont="0"/>
        <request index="3"  response="000000000000" foes="000000000000" cont="0"/>
        <request index="4"  response="000000000000" foes="000000000000" cont="0"/>
        <request index="5"  response="000000000000" foes="000000000000" cont="0"/>
        <request index="6"  response="000000000000" foes="000000000000" cont="0"/>
        <request index="7"  response="000000000000" foes="000000000000" cont="0"/>
        <request index="8"  response="000000000000" foes="000000000000" cont="0"/>
        <request index="9"  response="000000000000" foes="000000000000" cont="0"/>
        <request index="10" response="000000000000" foes="000000000000" cont="0"/>
        <request index="11" response="000000000000" foes="000000000000" cont="0"/>
    </junction>
    <junction id="5" type="priority" x="180.00" y="600.00" incLanes="e3_0 e3_1 e3_2 e3_3 e3_4 e3_5 e7_0 e7_1 e7_2 e7_3 e7_4 e7_5" intLanes=":5_0_0 :5_1_0 :5_2_0 :5_3_0 :5_4_0 :5_5_0 :5_6_0 :5_6_1 :5_6_2 :5_6_3 :5_6_4 :5_6_5" shape="203.20,600.00 203.20,580.80 200.98,580.36 200.20,579.80 199.64,579.02 199.31,578.02 199.20,576.80 180.00,576.80 179.56,579.02 179.00,579.80 178.22,580.36 177.22,580.69 176.00,580.80 176.00,600.00">
        <request index="0"  response="000000000000" foes="111111000000" cont="0"/>
        <request index="1"  response="000000000000" foes="111111000000" cont="0"/>
        <request index="2"  response="000000000000" foes="111111000000" cont="0"/>
        <request index="3"  response="000000000000" foes="111111000000" cont="0"/>
        <request index="4"  response="000000000000" foes="111111000000" cont="0"/>
        <request index="5"  response="000000000000" foes="111111000000" cont="0"/>
        <request index="6"  response="000000111111" foes="000000111111" cont="0"/>
        <request index="7"  response="000000111111" foes="000000111111" cont="0"/>
        <request index="8"  response="000000111111" foes="000000111111" cont="0"/>
        <request index="9"  response="000000111111" foes="000000111111" cont="0"/>
        <request index="10" response="000000111111" foes="000000111111" cont="0"/>
        <request index="11" response="000000111111" foes="000000111111" cont="0"/>
    </junction>
    <junction id="6" type="priority" x="180.00" y="0.00" incLanes="e11_0 e11_1 e11_2 e11_3 e11_4 e11_5" intLanes=":6_0_0 :6_0_1 :6_0_2 :6_0_3 :6_0_4 :6_0_5 :6_6_0 :6_7_0 :6_8_0 :6_9_0 :6_10_0 :6_11_0" shape="180.00,4.00 199.20,4.00 199.64,1.78 200.20,1.00 200.98,0.44 201.98,0.11 203.20,0.00 203.20,-19.20 176.00,-19.20 176.00,0.00 178.22,0.44 179.00,1.00 179.56,1.78 179.89,2.78">
        <request index="0"  response="000000000000" foes="000000000000" cont="0"/>
        <request index="1"  response="000000000000" foes="000000000000" cont="0"/>
        <request index="2"  response="000000000000" foes="000000000000" cont="0"/>
        <request index="3"  response="000000000000" foes="000000000000" cont="0"/>
        <request index="4"  response="000000000000" foes="000000000000" cont="0"/>
        <request index="5"  response="000000000000" foes="000000000000" cont="0"/>
        <request index="6"  response="000000000000" foes="000000000000" cont="0"/>