<edges>
    <edge id="e1" from="2" to="1" priority="2" numLanes="6" speed="40.0"/>

    <edge id="e2" from="4" to="3" priority="2" numLanes="6" speed="40.0"/>

    <edge id="e3" from="6" to="5" priority="2" numLanes="6" speed="40.0"/>

    <edge id="e4" from="8" to="7" priority="2" numLanes="6" speed="40.0"/>

    <edge id="e5" from="10" to="9" priority="2" numLanes="6" speed="40.0"/>

    <edge id="e6" from="1" to="3" priority="2" numLanes="6" speed="40.0"/>
    <edge id="e7" from="3" to="5" priority="2" numLanes="6" speed="40.0"/>
    <edge id="e8" from="5" to="7" priority="2" numLanes="6" speed="40.0"/>
    <edge id="e9" from="7" to="9" priority="2" numLanes="6" speed="40.0"/>

    <edge id="e10" from="2" to="4" priority="2" numLanes="6" speed="40.0"/>
    <edge id="e11" from="4" to="6" priority="2" numLanes="6" speed="40.0"/>
    <edge id="e12" from="6" to="8" priority="2" numLanes="6" speed="40.0"/>
    <edge id="e13" from="8" to="10" priority="2" numLanes="6" speed="40.0"/>

</edges>