<?xml version="1.0" encoding="UTF-8"?>

<!-- generated on 08/22/21 23:23:13 by Eclipse SUMO netedit Version 1.7.0
<configuration xmlns:xsi="http://www.w3.org/2001/XMLSchema-instance" xsi:noNamespaceSchemaLocation="http://sumo.dlr.de/xsd/netconvertConfiguration.xsd">

    <output>
        <output-file value="D:\simulator\SUMOTutorials\sumolympics\sumolypics.net.xml"/>
    </output>

    <processing>
        <offset.disable-normalization value="true"/>
    </processing>

    <junctions>
        <no-turnarounds value="true"/>
    </junctions>

    <report>
        <aggregate-warnings value="5"/>
    </report>

</configuration>
-->

<additional xmlns:xsi="http://www.w3.org/2001/XMLSchema-instance" xsi:noNamespaceSchemaLocation="http://sumo.dlr.de/xsd/additional_file.xsd">
    <tlLogic id="gneJ2" type="static" programID="0" offset="0">
        <phase duration="82" state="GGGGG"/>
        <phase duration="3" state="yyyyy"/>
        <phase duration="5" state="rrrrr"/>
    </tlLogic>
</additional>
