<?xml version="1.0" encoding="UTF-8"?>

<!-- generated on 08/22/21 11:42:36 by Eclipse SUMO duarouter Version 1.7.0
<configuration xmlns:xsi="http://www.w3.org/2001/XMLSchema-instance" xsi:noNamespaceSchemaLocation="http://sumo.dlr.de/xsd/duarouterConfiguration.xsd">

    <input>
        <net-file value="d:\Program%20Files%20(x86)\Eclipse\Sumo\tools\2021-08-22-11-42-08\osm.net.xml"/>
        <route-files value="d:\Program%20Files%20(x86)\Eclipse\Sumo\tools\2021-08-22-11-42-08\osm.pedestrian.trips.xml"/>
    </input>

    <output>
        <output-file value="d:\Program%20Files%20(x86)\Eclipse\Sumo\tools\2021-08-22-11-42-08\osm.pedestrian.rou.xml"/>
        <alternatives-output value="d:\Program%20Files%20(x86)\Eclipse\Sumo\tools\2021-08-22-11-42-08\osm.pedestrian.rou.alt.xml"/>
    </output>

    <time>
        <begin value="0"/>
        <end value="3600"/>
    </time>

    <report>
        <no-warnings value="true"/>
        <ignore-errors value="true"/>
        <no-step-log value="true"/>
    </report>

</configuration>
-->

<routes xmlns:xsi="http://www.w3.org/2001/XMLSchema-instance" xsi:noNamespaceSchemaLocation="http://sumo.dlr.de/xsd/routes_file.xsd">
    <vType id="ped_pedestrian" vClass="pedestrian"/>
    <person id="ped0" type="ped_pedestrian" depart="0.00">
        <walk edges="437500498 437500501 437500497 437500500 437500503 48095588#0 48095588#1 48095588#2 48095588#3 48095488 424344305 137630050 424344289 202157014#0 202157014#1 202156995#1 4067932#1 541763974 61584187#0 61584187#1 61584187#2 61584187#3 61584187#4 54048863 15971197#0 628330913 251884680 4611694 305153174 54781811#1 54781811#0 4611696#1 831860725#0 -15973619#0 -15973619#1 -15973619#2 -15973619#3 -15973619#4 -15973619#5 -15973619#6 -15973619#7 -15973619#8 -15973619#9 -15973619#10 -15973619#11 -15973619#12"/>
    </person>
    <person id="ped1" type="ped_pedestrian" depart="2.01">
        <walk edges="171423002#12 171423002#11 66071373#1 243854725#4 -24242882#1 -24242882#2 -24242882#3 32508498 205728152#3 803471185 -68647306#2 -68647306#3 -68647306#4 699041689 -4773029#1 -4773029#0 66071366#3 -4611713#0 4611708#3 -147066248#8 -147066248#7 -147066248#6 -147066248#5 -147066248#4 -147066248#3 -147066248#2 -147066248#1 147066248#0"/>
    </person>
    <person id="ped2" type="ped_pedestrian" depart="4.02">
        <walk edges="482809613 -147066248#5 482809614 -15973619#2 -15973619#1 -15973619#0 831860725#0 4611696#1 54781811#0 54781811#1 305153174 4611694"/>
    </person>
    <person id="ped3" type="ped_pedestrian" depart="6.03">
        <walk edges="83517339 340498976#10 340498976#8 340498976#6 340498976#3 463829477#1 83517336#4 -153698394#1 153698394#2 -66071373#3 -194069449#1 -194069449#0 882389497 4588217 874528353#0 874528353#1 874528353#2 -4402014#2 -4402014#3 -326116285#1"/>
    </person>
    <person id="ped4" type="ped_pedestrian" depart="8.05">
        <walk edges="254523891 254523883 335576646#4 254523912#1 335704571 254523888#0 465376260#1 -516398559#1 -195397561#1 -195397561#0 -24243092#1 -24243092#0 -4610476#3 195262644 122820534#1 340498976#6 340498976#8 -330840134#2 699041686#0 699041686#1 803471194#2 803471194#1 -4610527 -377215961#2 -168937986#3"/>
    </person>
    <person id="ped5" type="ped_pedestrian" depart="10.06">
        <walk edges="136571494#0 202817674#6 202817674#5 202817674#4 202817674#3 202817674#0 -120675240#2 -120675240#3 4611696#5 4611696#4 4611696#1 23755950#2 23755950#1 23755950#0 66071366#3 66071366#2 66071366#1 66071366#0 389101365#3 389101365#0 35557143#1 292429056#3 812557617 -4588219#1 -4588219#0 -681299267#1 681299268 23755739#4 23755739#3 23755739#0 533509622#3 47423542#0 47423542#1 327941678"/>
    </person>
    <person id="ped6" type="ped_pedestrian" depart="12.07">
        <walk edges="-15973619#4 -15973619#3 -15973619#2 -15973619#1 -15973619#0 -831860725#2 23755950#2 23755950#1 23755950#0 66071366#3 -4773029#0 -4773029#1 699041689 -68647306#4 -68647306#3 -68647306#2 803471185 205728152#3 32508498 -24242882#3 -24242882#2 -24242882#1 -24242882#0 4588217 874528353#0 874528353#1 874528353#2 4402014#0 4402014#3 326116285#0 326116285#2 326116285#3 -293405874#1 969329230#0 373292159#6 424323348 -327735421 -154043356 -24240306 38345709 -38345682 538530050#0 4773414#0 720167983#0 720167983#1 885108460#2 885108460#1 885108460#0 341985592#3 341985592#2 341985592#1 120608706#0"/>
    </person>
    <person id="ped7" type="ped_pedestrian" depart="14.08">
        <walk edges="4403559#0 169660686#1 195104956#1 195104960#1 195104960#3 195104960#4 195104960#5 4412886#0 24234486 4588211#1 437325056#0 -176273730#2 171484594#1 885108459#0 885108459#1 25777564#0 25777564#1 225471860 34142170#0 34142170#1 34142170#2 34142170#3"/>
    </person>
    <person id="ped8" type="ped_pedestrian" depart="16.09">
        <walk edges="137630050 424344289 202157014#0 202157014#1 202156995#1 4067932#1 541763974 61584187#0 61584187#1 61584187#2 61584187#3 61584187#4 54048863 15971197#0 628330913 251884680 -4611694 305153173 4611693#0 4611693#1 -43231842#0 -43231842#1 -43231842#2 -43231842#3 -66071370 -4611713#0 -4611713#1 4611711#1 4611711#0 23755961#2 23755961#1 23755961#0 389101373#2"/>
    </person>
    <person id="ped9" type="ped_pedestrian" depart="18.10">
        <walk edges="596826979#1 596826979#0 596826980#4 596826980#3 596826976#1 596826976#0 -710761407#0 -85255869#2 23755739#0 23755739#3 23755739#4 47935842 -4402014#3 -4402014#2 874528353#2 874528353#1 874528353#0 4588217 882389497 -194069449#0 -194069449#1 -66071373#3 153698394#2 -153698394#1 83517336#4 463829477#1 340498976#3 340498976#6 340498976#8 340498976#10 -132460632#0"/>
    </person>
    <person id="ped10" type="ped_pedestrian" depart="20.11">
        <walk edges="589906055 66071373#1 -153698394#4 4412868 11483007#0 195411604 465376242 465376261#2 24243052#5 24243052#4 24243052#3 24243052#2 607001337 465218214"/>
    </person>
    <person id="ped11" type="ped_pedestrian" depart="22.12">
        <walk edges="202157029#3 121717657#1 121717657#2 121717657#3 121717657#4 164874302 202157016 -339201177#2 -339201177#1 -339201177#0 4610480 83517334#2 -22972219#1 -4610476#1 -4610476#2 -4610476#3 -24243092#0 -24243092#1 -195397561#0 -195397561#1 -516398559#1 194073677#4 194073677#3 194073677#2 194073677#1 194073677#0 465376246#1 82165084 82165083 82168025 25959593 195104956#1 -194159765#0 131611528#2 131611528#1 37629066 -4570580#2 -4570580#3 870683680#4 885480612#0 885480612#1 870683674#0 259078768 -60333312#1"/>
    </person>
    <person id="ped13" type="ped_pedestrian" depart="26.15">
        <walk edges="-339201177#4 -339201177#3 -339201177#2 -339201177#1 -339201177#0 168937986#5 168937986#4 168937986#3 168937986#1 340498982#9 340498982#8 28251222#1 -28251222#0 -68647306#6 32508516#1 260425593 260426116 -4611706#1 -35557161#0 -35557161#1"/>
    </person>
    <person id="ped14" type="ped_pedestrian" depart="28.16">
        <walk edges="705182550 427637455 153698390#1 153698390#0 541295974 -6228081 222328410 4610472#2 195397561#5 195397561#2 195397561#1 22972454 -35578576#0 -35578576#1 -35578576#2 83517336#4 463829477#1 -410310755#2 410310755#4"/>
    </person>
    <person id="ped15" type="ped_pedestrian" depart="30.17">
        <walk edges="591200195#0 176043821#2 176043821#3 176043821#4 176043814 720181236#1 720181236#0 785302398 538530050#0 4773414#0"/>
    </person>
    <person id="ped16" type="ped_pedestrian" depart="32.18">
        <walk edges="34075559#0 34075559#1 34075559#2 34075559#3 34075559#4 34075559#5 34075559#6 34075559#7 24736591#1 24736590 176043821#3 34142168#1 -320462164#0 -320462164#2 -320462163#0 -320462163#3 326116285#3 326116285#2 326116285#0 4402014#3 4402014#0 874528353#2 874528353#1 874528353#0 4588217 882389497 -194069449#0 -194069449#1 -66071373#3 171423002#11 171423002#12 915958587#0 915958587#5 171494871#7 915958622#0"/>
    </person>
    <person id="ped17" type="ped_pedestrian" depart="34.19">
        <walk edges="237522576 237522574#1 237520773#7 237520773#8 196845298#1 465376243#1 465376243#0 24243052#5 465376261#2 465376242 195411604 11483007#0 4412868 -153698394#4 66071373#1 243854725#4 243854725#3 243854725#0 -22972473#2 766868087#3 766868087#2 346240656#4 346240656#3"/>
    </person>
    <person id="ped18" type="ped_pedestrian" depart="36.20">
        <walk edges="681299267#0 681299268 47935842 -326116285#1 -326116285#2 -335462874#2 -293405874#1 969329230#0 373292159#6 424323348 -327735421 -154043356 -24240306 38345709 -38345682 538530050#0 4773414#0 720167983#0 720167983#1 720167983#2 720167983#3 720167983#4 67713117#6 67713117#7 424415180"/>
    </person>
    <person id="ped19" type="ped_pedestrian" depart="38.21">
        <walk edges="750204886 -750204886 153698390#1 153698390#0 541295974 -6228081 222328410 4610472#2 4610472#1 4610472#0 137630045 195397541#2 195397541#1 35578559 22972219#0 83517334#2 4610480 -339201177#0 -339201177#1 -339201177#2 -339201177#3 -339201177#4 -339201177#5 -202156991#0 -202156991#1 -202156991#2 708628328 4610599 553649892 15971191#0 15971191#1 28016312#0 28016312#1 156364556#1 202157002#0 100113531#2 100113531#0 4773465#1 171826987#0 375901786"/>
    </person>
    <person id="ped20" type="ped_pedestrian" depart="40.23">
        <walk edges="465413676#1 963861603#3 76611944#1 30596781#0 30596781#1 147683020#1 588733345 588733344 588733343 4395360#1 4395360#0 154041916 909333700 -4588211#1 -437325056#2 -437325055#2 -108031933#1 530085625#0 24913304#3 24913304#2 132600840#0 132600840#1 236092221#2 -195089504"/>
    </person>
    <person id="ped21" type="ped_pedestrian" depart="42.24">
        <walk edges="147665398#1 147665398#0 30596778#1 147683021 147683020#1 588733345 588733344 588733343 4395360#1 437493378 437493377 350094987 437493375 437493374 154041912#1 785302398 720181236#0 720181236#1 176043814 176043821#4 176043821#3 176043821#2 176043821#1"/>
    </person>
    <person id="ped22" type="ped_pedestrian" depart="44.25">
        <walk edges="-305153174 -4611694 354528932#1 354528932#0 340498982#9 340498982#8 340498982#5 340498982#4 340498982#3 340498982#2 340498982#0 461526152#0 342968607#1 236092221#3 236092221#2 236092221#1 236092221#0 24240246#3 24240246#2 24240246#1 373292156#0 969329230#1 969329230#0 373292159#6 424323348 -327735421 -154043356 -24240306 38345709 -38345682 376992756#0 668036844#1 785302398 720181236#0 24736594#0 24736594#1 24736594#2 120583852#1 151669579#0 151669579#1"/>
    </person>
    <person id="ped23" type="ped_pedestrian" depart="46.26">
        <walk edges="-38347139#0 38347139#1 43230873#0 43230873#1 4611694 354528932#1 354528932#0 340498982#9 340498982#8 340498982#5 340498982#4 340498982#3 340498982#2 340498982#0 171423002#10 171423002#9"/>
    </person>
    <person id="ped24" type="ped_pedestrian" depart="48.27">
        <walk edges="437493376 154041916 909333700 -4588211#1 -437325056#2 -437325055#2 -108031933#1 530085625#0 24913304#3 231716563#0 231716563#1 237221885 231716566 317859977#0 416174754 231716555"/>
    </person>
    <person id="ped25" type="ped_pedestrian" depart="50.28">
        <walk edges="237221874#2 237221880 38211707 373292159#2 373292159#3 317859982#5 317859982#4 317859982#3 132600840#1"/>
    </person>
    <person id="ped26" type="ped_pedestrian" depart="52.29">
        <walk edges="170098545#5 170098545#4 170098545#3 46517262#0 46517262#1 46517262#2 46517262#3 46517262#4 46517262#5 46517262#6 -28016312#3 -28016312#0 15971191#1 15971191#0 553649892 4610599 708628328 -202156991#2 -202156991#1 -202156991#0 -339201177#5 -339201177#4 -339201177#3 -339201177#2 -339201177#1 -339201177#0 -4610480 83517339 340498976#10 340498976#8 340498976#6 340498976#3 463829477#1 83517336#4 -83517336#1 158023913#4 158023913#2 158023913#0 -930343901#2 -930343901#3 -930343901#4 -24242892#0 -24242892#3 68711084#0 171484594#1 885108459#0 885108459#1 885108460#0"/>
    </person>
    <person id="ped27" type="ped_pedestrian" depart="54.30">
        <walk edges="4402014#3 326116285#0 326116285#2 326116285#3 -293405874#1 969329230#0 373292159#6 373292159#5 373292159#4 373292159#3 373292159#2 373292159#1 108031933#0 437325055#0 437325056#0 4588211#1 909333700 154041916 437493376 437493375 721535525 4412932#1 48840562#1 48840562#0 421618243 48840561#0 465413684 421618244"/>
    </person>
    <person id="ped28" type="ped_pedestrian" depart="56.32">
        <walk edges="-796446835#1 -796446835#2 -796446835#0 -31313667#0 -31313667#1 -31313667#2 -195411605#0 -15977422#0 114667396#0 169195795#7 169195795#6 169195795#5 169195795#4 28251222#1 28251222#0 4773029#2 4773029#1"/>
    </person>
    <person id="ped29" type="ped_pedestrian" depart="58.33">
        <walk edges="-68647306#5 -68647306#4 -68647306#3 -68647306#2 803471185 205728152#3 32508498 -24242882#3 -24242882#2 -24242882#1 -24242882#0 4588217 874528353#0 874528353#1 874528353#2 -4402014#2 -4402014#3 47935842 23755739#4 23755739#3 23755739#0"/>
    </person>
    <person id="ped30" type="ped_pedestrian" depart="60.34">
        <walk edges="963861603#2 963861603#3 76611944#1 30596781#0 30596781#1 147683020#1 588733345 588733344 588733343 4395360#1 4395360#0 154041916 909333700 -4588211#1 -437325056#2 24242892#1 24242892#0 930343901#4 930343901#3 930343901#2 -158023913#0 -158023913#2 -158023913#6 -83517336#1 83517336#4 463829477#1 340498976#3 340498976#6 340498976#8 340498976#10 83517339 -4610480 -339201177#0 -339201177#1 -339201177#2 -339201177#3 -339201177#4 -339201177#5 -202156991#0 -202156991#1 -202156991#2 708628328 4610599 553649892 15971191#0 437500499 437500502 437500504#0 437500504#1 437500504#2 437500498 437500501 437500497 437500500"/>
    </person>
    <person id="ped31" type="ped_pedestrian" depart="62.35">
        <walk edges="35454134 25945724#2 -15973619#14 15973619#12 148870943 4611714#6"/>
    </person>
    <person id="ped32" type="ped_pedestrian" depart="64.36">
        <walk edges="698628824#2 698628824#3 698628823 766868090#3 -22972473#3 -22972473#2 243854725#0 243854725#3 243854725#4 66071373#1 -153698394#4 -153698394#1 -35578576#2 -35578576#1 -35578576#0 22972454 195397561#1 195397561#2 195397561#5 4610472#2 222328410 -6228081 541295974"/>
    </person>
    <person id="ped33" type="ped_pedestrian" depart="66.37">
        <walk edges="147683020#0 147683022 147683024 875774537#1 4395360#1 4395360#0 154041916 909333700 -4588211#1 -437325056#2 24242892#1 24242892#0 930343901#4 930343901#3 930343901#2 -158023913#0 -158023913#2 -158023913#6 -83517336#1 83517336#4 463829477#1 340498976#3 340498976#6 340498976#8 340498976#10 83517339 -4610480 -339201177#0 -339201177#1 -339201177#2 -339201177#3 -339201177#4 -339201177#5 -202156991#0 -202156991#1 -202156991#2 708628328 4610599 553649892 15971191#0 15971191#1 -28016312#0 -28016312#3 46517262#6 46517262#5 46517262#4 170852455 170852451 170852468 170852466 170852444 -170370361#1"/>
    </person>
    <person id="ped34" type="ped_pedestrian" depart="68.38">
        <walk edges="196845298#1 237526578#0 237526578#1 43185719 43185718#0 43185718#1 43185718#2 274513581#1 274513581#0 335043667 274513551 274513549 274513571 38711947#2 -24243092#1 -24243092#0 -4610476#3 -4610476#2 -4610476#1 -22972219#1 83517334#2 4610480 -339201177#0 -339201177#1 -339201177#2 -339201177#3 -339201177#4 -339201177#5 -202156991#0 -202156991#1 -202156991#2 708628328 4610599 553649892 15971191#0 15971191#1 -28016312#0 -28016312#3 46517262#6 46517262#5 46517262#4 46517262#3 170852467 170852441 170852453 170852456 170392872 170370361#0"/>
    </person>
    <person id="ped35" type="ped_pedestrian" depart="70.39">
        <walk edges="133885745#1 -339201177#4 -339201177#3 -339201177#2 -339201177#1 -339201177#0 4610480 83517334#2 -22972219#1 -4610476#1 -4610476#2 -4610476#3 -24243092#0 -24243092#1 38711947#2 38711947#1 38711947#0 465376255#2 175885746#4 175885746#3 175885746#1 175885746#0 465376261#1 465376261#2 24243052#5 24243052#4 24243052#3 24243052#2 24243052#1 24243052#0 893334268 893334270#0 893334270#1"/>
    </person>
    <person id="ped36" type="ped_pedestrian" depart="72.41">
        <walk edges="78049203#1 273805103 153698412 262120530#1 868813902#0 868813902#1 -437325050#1 868813916#0 870683673#1 76212441#1 76212441#4 76212441#6 870683674#3 870683674#4 169659401#1 885480612#0 870683680#4 -4570580#3 -4570580#2 37629066 131611528#1 131611528#2 -194159765#0 195104956#1 25959593 82168025 82165083 82165084 465376246#1 194073677#0 194073677#1 194073677#2 194073677#3 194073677#4 190447768#2 195411602#1"/>
    </person>
    <person id="ped37" type="ped_pedestrian" depart="74.42">
        <walk edges="4412932#3 465413690#3 465413695#2 465413690#1 465413690#0 72274388#4 72274388#3 424415187#5 424415187#4 424415187#3 212107362#1 212107362#2 -67713117#6 720167983#4 720167983#3 720167983#2 720167983#1 720167983#0 4773414#0 538530050#0 785302398 720181236#0 720181236#1 176043814 24736587#0"/>
    </person>
    <person id="ped38" type="ped_pedestrian" depart="76.43">
        <walk edges="870683679#2 870683679#1 24242892#1 24242892#0 930343901#4 930343901#3 930343901#2 -158023913#0 -158023913#2 -158023913#6 -83517336#1 83517336#4 463829477#1 340498976#3 340498976#6 340498976#8 340498976#10 83517339 -4610480 -339201177#0 -339201177#1 -339201177#2 -339201177#3 -339201177#4 -339201177#5 -202156991#0 -202156991#1 -202156991#2 708628328 4610599 553649892 15971191#0 15971191#1 23809670#3 -23809670#2 -23809670#1 31959087#1 -31959087#0 304514893#5 280007142#4 280007142#1"/>
    </person>
    <person id="ped39" type="ped_pedestrian" depart="78.44">
        <walk edges="169660686#1 25959593 82168025 82165083 82165084 465376246#1 194073677#0 194073677#1 194073677#2 194073677#3 194073677#4 -516398559#1 -195397561#1 -195397561#0 -24243092#1 -24243092#0 -4610476#3 -4610476#2 -4610476#1 -22972219#1 83517334#2 4610480 -339201177#0 -339201177#1 -339201177#2 -339201177#3 -339201177#4 -339201177#5 -202156991#0 -202156991#1 -202156991#2 708628328 4610599 553649892 15971191#0 15971191#1"/>
    </person>
    <person id="ped40" type="ped_pedestrian" depart="80.45">
        <walk edges="35631513#0 273805108 34834265#1 147683023#1 147683023#0 875774537#1 4395360#1 4395360#0 154041916 909333700 -4588211#1 -437325056#2 24242892#1 24242892#0 -930343901#4 -930343901#3 327519007 327519012#7 327519011#0 327519011#1 327519011#2 -292429062#1 -292429062#0 153698380#0 188386313#2 188386313#1 340498988#0 882389494 169195795#9 169195795#7 169195795#6 169195795#5 169195795#4 169195795#1"/>
    </person>
    <person id="ped41" type="ped_pedestrian" depart="82.46">
        <walk edges="378153327 378150069 378150075#1 378150074#0 465218216 465218218 465218213 465218214 607001337 24243052#1 24243052#0 893334268 893334270#0 893334270#1 -153698402#2 -153698402#1 -25945966 -4412886#1 -153698415#1 870659472#1 870683674#3 76212441#6 76212441#4 76212441#1 870683673#1 868813916#0 868813912#5 868813912#6 868813898#3 868813898#2"/>
    </person>
    <person id="ped42" type="ped_pedestrian" depart="84.47">
        <walk edges="24736594#1 24736587#0 176043821#4 34142168#1 -320462164#0 -320462164#2 -320462163#0 -320462163#3 326116285#3 326116285#2 326116285#0 4402014#3 4402014#0 874528353#2 874528353#1 874528353#0 4588217 -24242882#0 -24242882#1 -24242882#2 -24242882#3 32508498 205728152#3 803471185 -68647306#2 -68647306#3 -68647306#4 699041689 -4773029#1 -4773029#0 -66071366#4 -23755950#0 -23755950#1 -23755950#4 -4611696#3 -4611696#4 120675240#4 120675240#3 120675240#0 -202817674#2 -202817674#3 -202817674#4 -202817674#5 38208961 136571494#0 136571494#1 136571494#2"/>
    </person>
    <person id="ped43" type="ped_pedestrian" depart="86.48">
        <walk edges="974193162 194962998#1 120675240#3 120675240#4 -4611696#4 -4611696#3 -23755950#4 -23755950#1 -23755950#0 -66071366#4 -4773029#0 -4773029#1 699041689 68647306#4 68647306#3 68647306#2 68647306#1 24242882#3 24242882#2 24242882#1 24242882#0 -4588217 -874528353#0 -874528353#1 -874528353#4 -4402014#2 -4402014#3 47935842 23755739#4 330965609"/>
    </person>
    <person id="ped44" type="ped_pedestrian" depart="88.50">
        <walk edges="-335462874#2 -293405874#1 969329230#0 373292159#6 373292159#5 373292159#4 373292159#3 373292159#2 373292159#1 108031933#0 437325055#0 437325056#0 4588211#1 -25945966 -4412886#1 -195104960#5 -195104960#4 -195104960#3 -195104960#2"/>
    </person>
    <person id="ped45" type="ped_pedestrian" depart="90.51">
        <walk edges="-43231842#1 -43231842#2 -43231842#3 -474362271 -66071379#0 -168937986#1 -377215961#2 -4610527 803471194#1 803471194#2 699041686#1 699041686#0 -330840134#2 340498976#8 340498976#6 122820534#1 195262644 -4610476#3 -24243092#0 -24243092#1 -195397561#0 -195397561#1 -516398559#1 4402228 394345496#2 394345496#1 394345496#0 43185680 43185669#2"/>
    </person>
    <person id="ped46" type="ped_pedestrian" depart="92.52">
        <walk edges="557076776#0 28016312#1 28016312#0 15971191#1 15971191#0 553649892 4610599 708628328 -202156991#2 -202156991#1 -202156991#0 -339201177#5 -339201177#4 -339201177#3 -339201177#2 -339201177#1 -339201177#0 4610480 83517334#2 -22972219#1 -4610476#1 -4610476#2 -4610476#3 -24243092#0 -24243092#1 -195397561#0 -195397561#1 -516398559#1 194073677#4 194073677#3 194073677#2 194073677#1 422002325 335576648#1 335576644#1 335576644#2 254339571 254339582 254339567#1 254339568 254523892#0"/>
    </person>
    <person id="ped47" type="ped_pedestrian" depart="94.53">
        <walk edges="-23755739#3 -23755739#4 681299268 109902441#0 753316506 4588222#0 4588222#1 196850606#1 196850606#2 303084359#5 47707170#1 47707170#0 24997595#1 -24997595#0 389101373#1 389101373#2 23755961#0 23755961#1"/>
    </person>
    <person id="ped48" type="ped_pedestrian" depart="96.54">
        <walk edges="969441307 373292159#0 530085625#0 24913304#3 24913304#2 24913304#1 188386313#2 188386313#1 340498988#0 882389494 169195795#9 169195795#7 169195795#6 169195795#5 169195795#4 169195795#1 169195795#0 751602168 15971197#1 15971197#0 54048863 61584187#4 61584187#3 61584187#2 61584187#1 330840131 54048862#3 831694400 23013165#1 424344287 424344292 137630049 424344310 23813203 260138639#0 260138639#1 260138639#2 339201222"/>
    </person>
    <person id="ped49" type="ped_pedestrian" depart="98.55">
        <walk edges="915958620#1 915958620#2 915958620#3 171423002#3 171423002#2 169999355#0 11483007#0 158023913#4 744493892 744493891"/>
    </person>
    <person id="ped50" type="ped_pedestrian" depart="100.56">
        <walk edges="-137630045 -4610472#0 -4610472#1 -4610472#4 -34848160#1 -34848160#2 -195105328#0 -195105328#1 292429063#1 292429063#0 292429062#3 292429062#2 292429062#1 292429062#0 -153698380#2 373292157#0 373292157#1 373292157#2 373292157#3 24913267#0 24913267#3 4402014#0 4402014#3 47935842 23755739#4 23755739#3 23755739#0 533509622#3 47423542#0 47423542#1 47423542#2 47423542#3"/>
    </person>
    <person id="ped51" type="ped_pedestrian" depart="102.57">
        <walk edges="4611711#1 -23017853 -23017852#0 315255210 -315255206 4611708#1 4611708#0 346240665 766868087#1 766868087#2 766868087#3 -840229275 -840229276#0 -4588219#1 -4588219#0 -681299267#1 -681299268 -23755739#4 -23755739#3 -23755739#2 -533509622#3 -533509622#2 551198296#6 551198296#5 551198296#4 551198296#3 551198296#2 551198296#1 551198296#0 532547381#5 591200195#0 34142167#0 117955013 34075559#5 34075559#4 34075559#3 34075559#2"/>
    </person>
    <person id="ped52" type="ped_pedestrian" depart="104.59">
        <walk edges="170098545#5 170098545#4 170098545#3 46517262#0 46517262#1 46517262#2 46517262#3 46517262#4 46517262#5 46517262#6 -28016312#3 -28016312#0 15971191#1 437500499 437500502 437500504#0 437500504#1 437500504#2 437500498 437500501 437500497 437500500 437500503"/>
    </person>
    <person id="ped53" type="ped_pedestrian" depart="106.60">
        <walk edges="-437325050#1 868813916#0 870683673#1 76212441#1 76212441#4 76212441#6 870683674#3 870659472#1 -153698415#1 4412886#0 24234486 -4588211#1 -437325056#2 24242892#1 24242892#0 -930343901#4 -930343901#3 327519007 327519012#7 327519011#0 327519011#1 327519011#2 -292429062#1 -292429062#0 153698380#0 -24913267#2 -326116286#2 874528353#2 874528353#1 874528353#0 4588217 -24242882#0 -24242882#1 -24242882#2 -24242882#3 -4611706#0 260426116 260425593"/>
    </person>
    <person id="ped54" type="ped_pedestrian" depart="108.61">
        <walk edges="274524374 237522574#0 237520773#7 237520773#8 196845298#1 465376243#1 465376243#0 24243052#5 465376261#2 465376242 195411604 11483007#0 -169999355#2 882389496#0 882389496#1 882389496#2 882389496#3 915958585"/>
    </person>
    <person id="ped55" type="ped_pedestrian" depart="110.62">
        <walk edges="780327568#1 482327909 196850606#1 840229278#1 -22972473#3 -22972473#2 243854725#0 243854725#3 243854725#4 66071373#1 340498982#0 340498982#2 340498982#3 340498982#4 699041690 169195795#5"/>
    </person>
    <person id="ped56" type="ped_pedestrian" depart="112.63">
        <walk edges="327519012#3 327519012#2 327519009#0 -292429063#0 -893334271"/>
    </person>
    <person id="ped57" type="ped_pedestrian" depart="114.64">
        <walk edges="870683675#2 437325055#0 108031933#0 373292159#1 373292159#2 373292159#3 373292159#4 373292159#5 373292159#6 969329230#0 -293405874#1 326116285#3 326116285#2 326116285#0 4402014#3 4402014#0 874528353#2 874528353#1 874528353#0 4588217 196850609#2 196850609#1 196850609#0 -35557143#4 -22972473#2 -22972473#3 766868090#3 766868090#2"/>
    </person>
    <person id="ped58" type="ped_pedestrian" depart="116.65">
        <walk edges="194167251 -194167258#1 -727277375 195104960#1 195104956#1 25959593 82168025 82165083 82165084 465376246#1 194073677#0 194073677#1 194073677#2 194073677#3 194073677#4 -516398559#1 -195397561#1 -195397561#0 -24243092#1 -24243092#0 -4610476#3 -4610476#2 -4610476#1 -22972219#1 83517334#2 4610480 -339201177#0 -339201177#1 -339201177#2 -339201177#3 -339201177#4 -339201177#5 -202156991#0 -202156991#1 -202156991#2 708628328 4610599 553649892 15971191#0 15971191#1 202157024#1 202157024#0 4840974#2 316301061 437499013 437499008 437499010 437499015"/>
    </person>
    <person id="ped59" type="ped_pedestrian" depart="118.67">
        <walk edges="532555619#2 533508671#1 530309682#2 530309682#3 532547381#0 376995431#3 376995431#2 34142168#1 34142168#0 34075564#1 34075564#2"/>
    </person>
    <person id="ped60" type="ped_pedestrian" depart="120.68">
        <walk edges="541320665 541320656 541320655 317859982#3 317859982#2 373292157#1 373292157#0 188386313#2 188386313#1 340498988#0 882389494 169195795#9 169195795#7 169195795#6 169195795#5 169195795#4 169195795#1 169195795#0 751602168 15971197#1 15971197#0 54048863 61584187#4 61584187#3 61584187#2 61584187#1 330840131 54048862#3 831694400 202817676 339201237"/>
    </person>
    <person id="ped61" type="ped_pedestrian" depart="122.69">
        <walk edges="-105352753 -76212441#1 -76212441#4 885480611#2 885480609#1 -76212441#6 870683674#3 870659472#1 -153698415#1 4412886#0 24234486 -4588211#1 -437325056#2 24242892#1 24242892#0 -930343901#4 -930343901#3 327519007 327519012#7 327519011#0 327519011#1 327519011#2 -292429062#1 -292429062#0 153698380#0 -24913267#2 -326116286#2 874528353#2 874528353#1 874528353#0 4588217 171423001#0 171423001#1 196850624#0 196850624#1"/>
    </person>
    <person id="ped62" type="ped_pedestrian" depart="124.70">
        <walk edges="-153698402#5 292429063#1 292429063#0 292429062#3 292429062#2 292429062#1 292429062#0 153698380#0 317859982#0 373292148#1 882389495"/>
    </person>
    <person id="ped63" type="ped_pedestrian" depart="126.71">
        <walk edges="78298215#0 78298215#2 668036844#1 376992756#0 -38345682 38345709 -24240306 -154043356 -327735421 424323348 373292159#6 969329230#0 -293405874#1 326116285#3 326116285#2 326116285#0 4402014#3 4402014#0 874528353#2 874528353#1 874528353#0 4588217 -24242882#0 -24242882#1 -24242882#2 -24242882#3 32508498 205728152#3 803471185 68647306#2"/>
    </person>
    <person id="ped64" type="ped_pedestrian" depart="128.72">
        <walk edges="195088844 4402014#0 874528353#2 874528353#1 874528353#0 4588217 196850609#2 196850609#1 196850609#0 -35557143#4 22972473#0 22972473#3 22972473#4 22972473#5 22972470#1 -22972470#1"/>
    </person>
    <person id="ped65" type="ped_pedestrian" depart="130.73">
        <walk edges="78065411#4 78065411#5 424415178 192158391#0 192158391#1 273805095 437493375 437493376 154041916 909333700 -4588211#1 -437325056#2 24242892#1 24242892#0 -930343901#4 -930343901#3 327519007 327519012#7 327519011#0 327519011#1 327519011#2 -292429062#1 -292429062#0 153698380#0 -24913267#2 -326116286#2 874528353#2 874528353#1 874528353#0 4588217 196850609#2 196850609#1 196850609#0 -35557143#4 -389101365#2 -389101365#4 66071366#0 899946806"/>
    </person>
    <person id="ped66" type="ped_pedestrian" depart="132.74">
        <walk edges="-320462166#3 -533509622#2 551198296#6 941697352#0 941697352#1 941697352#2 530309682#0 530309682#1 530309682#2 530309682#3 532547381#0 376995431#3 376995431#2 320420913#0"/>
    </person>
    <person id="ped67" type="ped_pedestrian" depart="134.76">
        <walk edges="-24243092#0 -24243092#1 -35578576#0 35578576#1 35578576#2 -83517336#1 158023913#4 158023913#2 158023913#0 292429062#3 292429062#2 292429062#1 292429062#0 -153698380#2 373292157#0 373292157#1 373292157#2 373292157#3 24913267#0 24913267#3 4402014#0 4402014#3 326116285#0 326116285#2 326116285#3 -320462163#3 -320462163#0 -320462164#2 941697353#4 941697353#3 941697353#2 533508671#0 533508671#1 533508671#2 532552036#3"/>
    </person>
    <person id="ped68" type="ped_pedestrian" depart="136.77">