<?xml version="1.0" encoding="UTF-8"?>
<!-- generated on 2021-08-22 11:42:36.225038 by osmWebWizard.py v1_7_0+0000-714814baed
  options: 
-->
<routes xmlns:xsi="http://www.w3.org/2001/XMLSchema-instance" xsi:noNamespaceSchemaLocation="http://sumo.dlr.de/xsd/routes_file.xsd">
    <vType id="ped_pedestrian" vClass="pedestrian"/>
    <person id="ped0" depart="0.00" type="ped_pedestrian">
        <walk from="437500498" to="-15973619#12"/>
    </person>
    <person id="ped1" depart="2.01" type="ped_pedestrian">
        <walk from="171423002#12" to="147066248#0"/>
    </person>
    <person id="ped2" depart="4.02" type="ped_pedestrian">
        <walk from="482809613" to="4611694"/>
    </person>
    <person id="ped3" depart="6.03" type="ped_pedestrian">
        <walk from="83517339" to="-326116285#1"/>
    </person>
    <person id="ped4" depart="8.05" type="ped_pedestrian">
        <walk from="254523891" to="-168937986#3"/>
    </person>
    <person id="ped5" depart="10.06" type="ped_pedestrian">
        <walk from="136571494#0" to="327941678"/>
    </person>
    <person id="ped6" depart="12.07" type="ped_pedestrian">
        <walk from="-15973619#4" to="120608706#0"/>
    </person>
    <person id="ped7" depart="14.08" type="ped_pedestrian">
        <walk from="4403559#0" to="34142170#3"/>
    </person>
    <person id="ped8" depart="16.09" type="ped_pedestrian">
        <walk from="137630050" to="389101373#2"/>
    </person>
    <person id="ped9" depart="18.10" type="ped_pedestrian">
        <walk from="596826979#1" to="-132460632#0"/>
    </person>
    <person id="ped10" depart="20.11" type="ped_pedestrian">
        <walk from="589906055" to="465218214"/>
    </person>
    <person id="ped11" depart="22.12" type="ped_pedestrian">
        <walk from="202157029#3" to="-60333312#1"/>
    </person>
    <person id="ped12" depart="24.14" type="ped_pedestrian">
        <walk from="915958593#2" to="202157024#1"/>
    </person>
    <person id="ped13" depart="26.15" type="ped_pedestrian">
        <walk from="-339201177#4" to="-35557161#1"/>
    </person>
    <person id="ped14" depart="28.16" type="ped_pedestrian">
        <walk from="705182550" to="410310755#4"/>
    </person>
    <person id="ped15" depart="30.17" type="ped_pedestrian">
        <walk from="591200195#0" to="4773414#0"/>
    </person>
    <person id="ped16" depart="32.18" type="ped_pedestrian">
        <walk from="34075559#0" to="915958622#0"/>
    </person>
    <person id="ped17" depart="34.19" type="ped_pedestrian">
        <walk from="237522576" to="346240656#3"/>
    </person>
    <person id="ped18" depart="36.20" type="ped_pedestrian">
        <walk from="681299267#0" to="424415180"/>
    </person>
    <person id="ped19" depart="38.21" type="ped_pedestrian">
        <walk from="750204886" to="375901786"/>
    </person>
    <person id="ped20" depart="40.23" type="ped_pedestrian">
        <walk from="465413676#1" to="-195089504"/>
    </person>
    <person id="ped21" depart="42.24" type="ped_pedestrian">
        <walk from="147665398#1" to="176043821#1"/>
    </person>
    <person id="ped22" depart="44.25" type="ped_pedestrian">
        <walk from="-305153174" to="151669579#1"/>
    </person>
    <person id="ped23" depart="46.26" type="ped_pedestrian">
        <walk from="-38347139#0" to="171423002#9"/>
    </person>
    <person id="ped24" depart="48.27" type="ped_pedestrian">
        <walk from="437493376" to="231716555"/>
    </person>
    <person id="ped25" depart="50.28" type="ped_pedestrian">
        <walk from="237221874#2" to="132600840#1"/>
    </person>
    <person id="ped26" depart="52.29" type="ped_pedestrian">
        <walk from="170098545#5" to="885108460#0"/>
    </person>
    <person id="ped27" depart="54.30" type="ped_pedestrian">
        <walk from="4402014#3" to="421618244"/>
    </person>
    <person id="ped28" depart="56.32" type="ped_pedestrian">
        <walk from="-796446835#1" to="4773029#1"/>
    </person>
    <person id="ped29" depart="58.33" type="ped_pedestrian">
        <walk from="-68647306#5" to="23755739#0"/>
    </person>
    <person id="ped30" depart="60.34" type="ped_pedestrian">
        <walk from="963861603#2" to="437500500"/>
    </person>
    <person id="ped31" depart="62.35" type="ped_pedestrian">
        <walk from="35454134" to="4611714#6"/>
    </person>
    <person id="ped32" depart="64.36" type="ped_pedestrian">
        <walk from="698628824#2" to="541295974"/>
    </person>
    <person id="ped33" depart="66.37" type="ped_pedestrian">
        <walk from="147683020#0" to="-170370361#1"/>
    </person>
    <person id="ped34" depart="68.38" type="ped_pedestrian">
        <walk from="196845298#1" to="170370361#0"/>
    </person>
    <person id="ped35" depart="70.39" type="ped_pedestrian">
        <walk from="133885745#1" to="893334270#1"/>
    </person>
    <person id="ped36" depart="72.41" type="ped_pedestrian">
        <walk from="78049203#1" to="195411602#1"/>
    </person>
    <person id="ped37" depart="74.42" type="ped_pedestrian">
        <walk from="4412932#3" to="24736587#0"/>
    </person>
    <person id="ped38" depart="76.43" type="ped_pedestrian">
        <walk from="870683679#2" to="280007142#1"/>
    </person>
    <person id="ped39" depart="78.44" type="ped_pedestrian">
        <walk from="169660686#1" to="15971191#1"/>
    </person>
    <person id="ped40" depart="80.45" type="ped_pedestrian">
        <walk from="35631513#0" to="169195795#1"/>
    </person>
    <person id="ped41" depart="82.46" type="ped_pedestrian">
        <walk from="378153327" to="868813898#2"/>
    </person>
    <person id="ped42" depart="84.47" type="ped_pedestrian">
        <walk from="24736594#1" to="136571494#2"/>
    </person>
    <person id="ped43" depart="86.48" type="ped_pedestrian">
        <walk from="974193162" to="330965609"/>
    </person>
    <person id="ped44" depart="88.50" type="ped_pedestrian">
        <walk from="-335462874#2" to="-195104960#2"/>
    </person>
    <person id="ped45" depart="90.51" type="ped_pedestrian">
        <walk from="-43231842#1" to="43185669#2"/>
    </person>
    <person id="ped46" depart="92.52" type="ped_pedestrian">
        <walk from="557076776#0" to="254523892#0"/>
    </person>
    <person id="ped47" depart="94.53" type="ped_pedestrian">
        <walk from="-23755739#3" to="23755961#1"/>
    </person>
    <person id="ped48" depart="96.54" type="ped_pedestrian">
        <walk from="969441307" to="339201222"/>
    </person>
    <person id="ped49" depart="98.55" type="ped_pedestrian">
        <walk from="915958620#1" to="744493891"/>
    </person>
    <person id="ped50" depart="100.56" type="ped_pedestrian">
        <walk from="-137630045" to="47423542#3"/>
    </person>
    <person id="ped51" depart="102.57" type="ped_pedestrian">
        <walk from="4611711#1" to="34075559#2"/>
    </person>
    <person id="ped52" depart="104.59" type="ped_pedestrian">
        <walk from="170098545#5" to="437500503"/>
    </person>
    <person id="ped53" depart="106.60" type="ped_pedestrian">
        <walk from="-437325050#1" to="260425593"/>
    </person>
    <person id="ped54" depart="108.61" type="ped_pedestrian">
        <walk from="274524374" to="915958585"/>
    </person>
    <person id="ped55" depart="110.62" type="ped_pedestrian">
        <walk from="780327568#1" to="169195795#5"/>
    </person>
    <person id="ped56" depart="112.63" type="ped_pedestrian">
        <walk from="327519012#3" to="-893334271"/>
    </person>
    <person id="ped57" depart="114.64" type="ped_pedestrian">
        <walk from="870683675#2" to="766868090#2"/>
    </person>
    <person id="ped58" depart="116.65" type="ped_pedestrian">
        <walk from="194167251" to="437499015"/>
    </person>
    <person id="ped59" depart="118.67" type="ped_pedestrian">
        <walk from="532555619#2" to="34075564#2"/>
    </person>
    <person id="ped60" depart="120.68" type="ped_pedestrian">
        <walk from="541320665" to="339201237"/>
    </person>
    <person id="ped61" depart="122.69" type="ped_pedestrian">
        <walk from="-105352753" to="196850624#1"/>
    </person>
    <person id="ped62" depart="124.70" type="ped_pedestrian">
        <walk from="-153698402#5" to="882389495"/>
    </person>
    <person id="ped63" depart="126.71" type="ped_pedestrian">
        <walk from="78298215#0" to="68647306#2"/>
    </person>
    <person id="ped64" depart="128.72" type="ped_pedestrian">
        <walk from="195088844" to="-22972470#1"/>
    </person>
    <person id="ped65" depart="130.73" type="ped_pedestrian">
        <walk from="78065411#4" to="899946806"/>
    </person>
    <person id="ped66" depart="132.74" type="ped_pedestrian">
        <walk from="-320462166#3" to="320420913#0"/>
    </person>
    <person id="ped67" depart="134.76" type="ped_pedestrian">
        <walk from="-24243092#0" to="532552036#3"/>
    </person>
    <person id="ped68" depart="136.77" type="ped_pedestrian">
        <walk from="532727925#2" to="-4610609#1"/>
    </person>
    <person id="ped69" depart="138.78" type="ped_pedestrian">
        <walk from="30596778#1" to="345088524#1"/>
    </person>
    <person id="ped70" depart="140.79" type="ped_pedestrian">
        <walk from="169999355#0" to="766868097"/>
    </person>
    <person id="ped71" depart="142.80" type="ped_pedestrian">
        <walk from="254523897" to="133885747"/>
    </person>
    <person id="ped72" depart="144.81" type="ped_pedestrian">
        <walk from="34075564#2" to="4773414#1"/>
    </person>
    <person id="ped73" depart="146.82" type="ped_pedestrian">
        <walk from="120675240#4" to="195104960#4"/>
    </person>
    <person id="ped74" depart="148.83" type="ped_pedestrian">
        <walk from="969329230#0" to="4403559#0"/>
    </person>
    <person id="ped75" depart="150.85" type="ped_pedestrian">
        <walk from="26288771#1" to="335576646#3"/>
    </person>
    <person id="ped76" depart="152.86" type="ped_pedestrian">
        <walk from="-4597322#4" to="147066248#5"/>
    </person>
    <person id="ped77" depart="154.87" type="ped_pedestrian">
        <walk from="202157027#0" to="389101365#0"/>
    </person>
    <person id="ped78" depart="156.88" type="ped_pedestrian">
        <walk from="147683022" to="137630049"/>
    </person>
    <person id="ped79" depart="158.89" type="ped_pedestrian">
        <walk from="-24509317#0" to="43230873#1"/>
    </person>
    <person id="ped80" depart="160.90" type="ped_pedestrian">
        <walk from="147665408" to="868813916#4"/>
    </person>
    <person id="ped81" depart="162.91" type="ped_pedestrian">
        <walk from="744493888" to="-243854725#4"/>
    </person>
    <person id="ped82" depart="164.92" type="ped_pedestrian">
        <walk from="153698412" to="4610476#1"/>
    </person>
    <person id="ped83" depart="166.94" type="ped_pedestrian">
        <walk from="133885750#4" to="-4611706#0"/>
    </person>
    <person id="ped84" depart="168.95" type="ped_pedestrian">
        <walk from="883691541#4" to="373292157#3"/>
    </person>
    <person id="ped85" depart="170.96" type="ped_pedestrian">
        <walk from="304517627#3" to="551198296#6"/>
    </person>
    <person id="ped86" depart="172.97" type="ped_pedestrian">
        <walk from="591200195#2" to="107747047#4"/>
    </person>
    <person id="ped87" depart="174.98" type="ped_pedestrian">
        <walk from="-35557161#1" to="25945725"/>
    </person>
    <person id="ped88" depart="176.99" type="ped_pedestrian">
        <walk from="254523899" to="302247407"/>
    </person>
    <person id="ped89" depart="179.00" type="ped_pedestrian">
        <walk from="4773029#1" to="4610608"/>
    </person>
    <person id="ped90" depart="181.01" type="ped_pedestrian">
        <walk from="942234140#1" to="-35557161#6"/>
    </person>
    <person id="ped91" depart="183.03" type="ped_pedestrian">
        <walk from="251884680" to="202157029#0"/>
    </person>
    <person id="ped92" depart="185.04" type="ped_pedestrian">
        <walk from="750204886" to="15973619#14"/>
    </person>
    <person id="ped93" depart="187.05" type="ped_pedestrian">
        <walk from="107747047#3" to="274513573"/>
    </person>
    <person id="ped94" depart="189.06" type="ped_pedestrian">
        <walk from="254523891" to="171484594#1"/>
    </person>
    <person id="ped95" depart="191.07" type="ped_pedestrian">
        <walk from="15973619#4" to="881527239#9"/>
    </person>
    <person id="ped96" depart="193.08" type="ped_pedestrian">
        <walk from="273805103" to="746259197"/>
    </person>
    <person id="ped97" depart="195.09" type="ped_pedestrian">
        <walk from="346240653" to="-195397561#3"/>
    </person>
    <person id="ped98" depart="197.10" type="ped_pedestrian">
        <walk from="974193167" to="688445662#1"/>
    </person>
    <person id="ped99" depart="199.12" type="ped_pedestrian">
        <walk from="915958615#2" to="882389485"/>
    </person>
    <person id="ped100" depart="201.13" type="ped_pedestrian">
        <walk from="710761407#0" to="-711640737#2"/>
    </person>
    <person id="ped101" depart="203.14" type="ped_pedestrian">
        <walk from="320420912#1" to="133885750#2"/>
    </person>
    <person id="ped102" depart="205.15" type="ped_pedestrian">
        <walk from="24913304#3" to="-22972473#4"/>
    </person>
    <person id="ped103" depart="207.16" type="ped_pedestrian">
        <walk from="237526578#0" to="963861593"/>
    </person>
    <person id="ped104" depart="209.17" type="ped_pedestrian">
        <walk from="169999355#0" to="551198296#5"/>
    </person>
    <person id="ped105" depart="211.18" type="ped_pedestrian">
        <walk from="274524377#0" to="254523897"/>
    </person>
    <person id="ped106" depart="213.19" type="ped_pedestrian">
        <walk from="915958593#3" to="969329230#1"/>
    </person>
    <person id="ped107" depart="215.21" type="ped_pedestrian">
        <walk from="34848160#3" to="47423540#1"/>
    </person>
    <person id="ped108" depart="217.22" type="ped_pedestrian">
        <walk from="-591200194#0" to="194159765#1"/>
    </person>
    <person id="ped109" depart="219.23" type="ped_pedestrian">
        <walk from="915958615#2" to="376992756#0"/>
    </person>
    <person id="ped110" depart="221.24" type="ped_pedestrian">
        <walk from="34142167#0" to="51167932"/>
    </person>
    <person id="ped111" depart="223.25" type="ped_pedestrian">
        <walk from="-222328410" to="378150075#2"/>
    </person>
    <person id="ped112" depart="225.26" type="ped_pedestrian">
        <walk from="327735416" to="720181236#0"/>
    </person>
    <person id="ped113" depart="227.27" type="ped_pedestrian">
        <walk from="-66071366#4" to="915958601#2"/>
    </person>
    <person id="ped114" depart="229.29" type="ped_pedestrian">
        <walk from="-30721662#0" to="104567844"/>
    </person>
    <person id="ped115" depart="231.30" type="ped_pedestrian">
        <walk from="394345496#1" to="4610610#3"/>
    </person>
    <person id="ped116" depart="233.31" type="ped_pedestrian">
        <walk from="153698390#1" to="-4592739"/>
    </person>
    <person id="ped117" depart="235.32" type="ped_pedestrian">
        <walk from="831694400" to="15971191#0"/>
    </person>
    <person id="ped118" depart="237.33" type="ped_pedestrian">
        <walk from="394345494#1" to="424415185"/>
    </person>
    <person id="ped119" depart="239.34" type="ped_pedestrian">
        <walk from="254523882" to="378150075#0"/>
    </person>
    <person id="ped120" depart="241.35" type="ped_pedestrian">
        <walk from="335703513#0" to="883691541#2"/>
    </person>
    <person id="ped121" depart="243.36" type="ped_pedestrian">
        <walk from="122820534#1" to="473149642"/>
    </person>
    <person id="ped122" depart="245.38" type="ped_pedestrian">
        <walk from="153698415#0" to="24736587#1"/>
    </person>
    <person id="ped123" depart="247.39" type="ped_pedestrian">
        <walk from="4610526" to="194167256#0"/>
    </person>
    <person id="ped124" depart="249.40" type="ped_pedestrian">
        <walk from="196850606#1" to="519273960"/>
    </person>
    <person id="ped125" depart="251.41" type="ped_pedestrian">
        <walk from="-25294729#0" to="274524386"/>
    </person>
    <person id="ped126" depart="253.42" type="ped_pedestrian">
        <walk from="974193165#1" to="969441307"/>
    </person>
    <person id="ped127" depart="255.43" type="ped_pedestrian">
        <walk from="-25302636#1" to="133885750#0"/>
    </person>
    <person id="ped128" depart="257.44" type="ped_pedestrian">
        <walk from="169999355#0" to="882389499#4"/>
    </person>
    <person id="ped129" depart="259.45" type="ped_pedestrian">
        <walk from="796446835#2" to="785281156"/>
    </person>
    <person id="ped130" depart="261.47" type="ped_pedestrian">
        <walk from="237221874#0" to="-66071370"/>
    </person>
    <person id="ped131" depart="263.48" type="ped_pedestrian">
        <walk from="68711085#1" to="465376260#1"/>
    </person>
    <person id="ped132" depart="265.49" type="ped_pedestrian">
        <walk from="422000254" to="963861598#1"/>
    </person>
    <person id="ped133" depart="267.50" type="ped_pedestrian">
        <walk from="4412868" to="-133885743#0"/>
    </person>
    <person id="ped134" depart="269.51" type="ped_pedestrian">
        <walk from="616033348#1" to="194167255#0"/>
    </person>
    <person id="ped135" depart="271.52" type="ped_pedestrian">
        <walk from="4592739" to="885480611#1"/>
    </person>
    <person id="ped136" depart="273.53" type="ped_pedestrian">
        <walk from="-4611710#0" to="-4403559#1"/>
    </person>
    <person id="ped137" depart="275.54" type="ped_pedestrian">
        <walk from="-416419153" to="346240658#1"/>
    </person>
    <person id="ped138" depart="277.56" type="ped_pedestrian">
        <walk from="170855334" to="410657282#0"/>
    </person>
    <person id="ped139" depart="279.57" type="ped_pedestrian">
        <walk from="47423328#1" to="121717657#4"/>
    </person>
    <person id="ped140" depart="281.58" type="ped_pedestrian">
        <walk from="437325050#1" to="169195795#7"/>
    </person>
    <person id="ped141" depart="283.59" type="ped_pedestrian">
        <walk from="320965758" to="868813916#4"/>
    </person>
    <person id="ped142" depart="285.60" type="ped_pedestrian">
        <walk from="699041692#2" to="-339201177#2"/>
    </person>
    <person id="ped143" depart="287.61" type="ped_pedestrian">
        <walk from="254523899" to="171423002#4"/>
    </person>
    <person id="ped144" depart="289.62" type="ped_pedestrian">
        <walk from="-111833186#2" to="533509622#0"/>
    </person>
    <person id="ped145" depart="291.63" type="ped_pedestrian">
        <walk from="437496155" to="169067264#6"/>
    </person>
    <person id="ped146" depart="293.65" type="ped_pedestrian">
        <walk from="48840562#0" to="346240656#2"/>
    </person>
    <person id="ped147" depart="295.66" type="ped_pedestrian">
        <walk from="256678741#1" to="-133885749#2"/>
    </person>
    <person id="ped148" depart="297.67" type="ped_pedestrian">
        <walk from="-28016312#0" to="803471186"/>
    </person>
    <person id="ped149" depart="299.68" type="ped_pedestrian">
        <walk from="868813914#0" to="34142170#5"/>
    </person>
    <person id="ped150" depart="301.69" type="ped_pedestrian">
        <walk from="687804450#2" to="378150067#1"/>
    </person>
    <person id="ped151" depart="303.70" type="ped_pedestrian">
        <walk from="-533509622#1" to="-4610527"/>
    </person>
    <person id="ped152" depart="305.71" type="ped_pedestrian">
        <walk from="195089283" to="868813900"/>
    </person>
    <person id="ped153" depart="307.72" type="ped_pedestrian">
        <walk from="561816967" to="744493891"/>
    </person>
    <person id="ped154" depart="309.74" type="ped_pedestrian">
        <walk from="868813899#2" to="133885743#0"/>
    </person>
    <person id="ped155" depart="311.75" type="ped_pedestrian">
        <walk from="15973619#3" to="-389101391"/>
    </person>
    <person id="ped156" depart="313.76" type="ped_pedestrian">
        <walk from="541864435" to="803471190#0"/>
    </person>
    <person id="ped157" depart="315.77" type="ped_pedestrian">
        <walk from="254339570" to="424415186#3"/>
    </person>
    <person id="ped158" depart="317.78" type="ped_pedestrian">
        <walk from="-589906055" to="882389496#1"/>
    </person>
    <person id="ped159" depart="319.79" type="ped_pedestrian">
        <walk from="757944649" to="924828182#0"/>
    </person>
    <person id="ped160" depart="321.80" type="ped_pedestrian">
        <walk from="596826980#3" to="803199198#1"/>
    </person>
    <person id="ped161" depart="323.81" type="ped_pedestrian">
        <walk from="-15973619#11" to="482809613"/>
    </person>
    <person id="ped162" depart="325.83" type="ped_pedestrian">
        <walk from="202157008" to="882389496#4"/>
    </person>
    <person id="ped163" depart="327.84" type="ped_pedestrian">
        <walk from="574993713#1" to="757944647"/>
    </person>
    <person id="ped164" depart="329.85" type="ped_pedestrian">
        <walk from="596826980#3" to="170098545#4"/>
    </person>
    <person id="ped165" depart="331.86" type="ped_pedestrian">
        <walk from="553649892" to="-43051183"/>
    </person>
    <person id="ped166" depart="333.87" type="ped_pedestrian">
        <walk from="766868095#2" to="741727853"/>
    </person>
    <person id="ped167" depart="335.88" type="ped_pedestrian">
        <walk from="139118203#2" to="616033348#0"/>
    </person>
    <person id="ped168" depart="337.89" type="ped_pedestrian">
        <walk from="28016312#0" to="194983929"/>
    </person>
    <person id="ped169" depart="339.91" type="ped_pedestrian">
        <walk from="561333203" to="147665398#0"/>
    </person>
    <person id="ped170" depart="341.92" type="ped_pedestrian">
        <walk from="-15973619#0" to="114667396#0"/>
    </person>
    <person id="ped171" depart="343.93" type="ped_pedestrian">
        <walk from="202156991#0" to="757944648"/>
    </person>
    <person id="ped172" depart="345.94" type="ped_pedestrian">
        <walk from="915958611#2" to="171494871#2"/>
    </person>
    <person id="ped173" depart="347.95" type="ped_pedestrian">
        <walk from="437500504#1" to="24736594#2"/>
    </person>
    <person id="ped174" depart="349.96" type="ped_pedestrian">
        <walk from="941697353#2" to="34075559#0"/>
    </person>
    <person id="ped175" depart="351.97" type="ped_pedestrian">
        <walk from="885480611#2" to="-4403559#1"/>
    </person>
    <person id="ped176" depart="353.98" type="ped_pedestrian">
        <walk from="915958619" to="-893334271"/>
    </person>
    <person id="ped177" depart="356.00" type="ped_pedestrian">
        <walk from="915958605#1" to="170098545#0"/>
    </person>
    <person id="ped178" depart="358.01" type="ped_pedestrian">
        <walk from="-43156537" to="260425593"/>
    </person>
    <person id="ped179" depart="360.02" type="ped_pedestrian">
        <walk from="4773029#0" to="195397561#1"/>
    </person>
    <person id="ped180" depart="362.03" type="ped_pedestrian">
        <walk from="416174751" to="335043658"/>
    </person>
    <person id="ped181" depart="364.04" type="ped_pedestrian">
        <walk from="23852049#1" to="375901779#6"/>
    </person>
    <person id="ped182" depart="366.05" type="ped_pedestrian">
        <walk from="164874309#0" to="465413689#3"/>
    </person>
    <person id="ped183" depart="368.06" type="ped_pedestrian">
        <walk from="-109902441#0" to="882389482"/>
    </person>
    <person id="ped184" depart="370.07" type="ped_pedestrian">
        <walk from="34075559#7" to="47423541#1"/>
    </person>
    <person id="ped185" depart="372.09" type="ped_pedestrian">
        <walk from="48859715#1" to="4610525#0"/>
    </person>
    <person id="ped186" depart="374.10" type="ped_pedestrian">
        <walk from="23121445#5" to="-24243101"/>
    </person>
    <person id="ped187" depart="376.11" type="ped_pedestrian">
        <walk from="4597322#3" to="202157002#0"/>
    </person>
    <person id="ped188" depart="378.12" type="ped_pedestrian">
        <walk from="195397561#2" to="708628327"/>
    </person>
    <person id="ped189" depart="380.13" type="ped_pedestrian">
        <walk from="47423542#0" to="194167256#1"/>
    </person>
    <person id="ped190" depart="382.14" type="ped_pedestrian">
        <walk from="195089288#3" to="254339581#0"/>
    </person>
    <person id="ped191" depart="384.15" type="ped_pedestrian">
        <walk from="24997595#1" to="194073677#3"/>
    </person>
    <person id="ped192" depart="386.16" type="ped_pedestrian">
        <walk from="-4610526" to="254523888#0"/>
    </person>
    <person id="ped193" depart="388.18" type="ped_pedestrian">
        <walk from="885480612#0" to="4611696#4"/>
    </person>
    <person id="ped194" depart="390.19" type="ped_pedestrian">
        <walk from="868813912#4" to="424344292"/>
    </person>
    <person id="ped195" depart="392.20" type="ped_pedestrian">
        <walk from="194167258#1" to="341985592#3"/>
    </person>
    <person id="ped196" depart="394.21" type="ped_pedestrian">
        <walk from="-105352753" to="175885746#4"/>
    </person>
    <person id="ped197" depart="396.22" type="ped_pedestrian">
        <walk from="25777564#1" to="376995426#1"/>
    </person>
    <person id="ped198" depart="398.23" type="ped_pedestrian">
        <walk from="4412932#0" to="292429062#1"/>
    </person>
    <person id="ped199" depart="400.24" type="ped_pedestrian">
        <walk from="273805099" to="133885750#2"/>
    </person>
    <person id="ped200" depart="402.25" type="ped_pedestrian">
        <walk from="561816966" to="-76611950"/>
    </person>
    <person id="ped201" depart="404.27" type="ped_pedestrian">
        <walk from="-320462164#2" to="335576642#1"/>
    </person>
    <person id="ped202" depart="406.28" type="ped_pedestrian">
        <walk from="43376477#0" to="202157020"/>
    </person>
    <person id="ped203" depart="408.29" type="ped_pedestrian">
        <walk from="4610607" to="147066248#4"/>
    </person>
    <person id="ped204" depart="410.30" type="ped_pedestrian">
        <walk from="120608706#1" to="-15973619#10"/>
    </person>
    <person id="ped205" depart="412.31" type="ped_pedestrian">
        <walk from="15968749#0" to="30596778#1"/>
    </person>
    <person id="ped206" depart="414.32" type="ped_pedestrian">
        <walk from="711640736#3" to="-25294729#1"/>
    </person>
    <person id="ped207" depart="416.33" type="ped_pedestrian">
        <walk from="254339594" to="43185719"/>
    </person>
    <person id="ped208" depart="418.34" type="ped_pedestrian">
        <walk from="326116285#0" to="158023913#4"/>
    </person>
    <person id="ped209" depart="420.36" type="ped_pedestrian">
        <walk from="442389818#2" to="-122820534#1"/>
    </person>
    <person id="ped210" depart="422.37" type="ped_pedestrian">
        <walk from="51912365#1" to="533508671#1"/>
    </person>
    <person id="ped211" depart="424.38" type="ped_pedestrian">
        <walk from="-410310755#6" to="254523905"/>
    </person>
    <person id="ped212" depart="426.39" type="ped_pedestrian">
        <walk from="-840229278#0" to="915958595"/>
    </person>
    <person id="ped213" depart="428.40" type="ped_pedestrian">
        <walk from="335576646#4" to="-195397561#1"/>
    </person>
    <person id="ped214" depart="430.41" type="ped_pedestrian">
        <walk from="15973619#2" to="708628328"/>
    </person>
    <person id="ped215" depart="432.42" type="ped_pedestrian">
        <walk from="274524379#2" to="574993712"/>
    </person>
    <person id="ped216" depart="434.43" type="ped_pedestrian">
        <walk from="4597326" to="963861599#1"/>
    </person>
    <person id="ped217" depart="436.45" type="ped_pedestrian">
        <walk from="394345496#2" to="909333700"/>
    </person>
    <person id="ped218" depart="438.46" type="ped_pedestrian">
        <walk from="83517334#2" to="422002327"/>
    </person>
    <person id="ped219" depart="440.47" type="ped_pedestrian">
        <walk from="47423541#1" to="327937650"/>
    </person>
    <person id="ped220" depart="442.48" type="ped_pedestrian">
        <walk from="868813898#0" to="492340367#0"/>
    </person>
    <person id="ped221" depart="444.49" type="ped_pedestrian">
        <walk from="305153174" to="168935757#0"/>
    </person>
    <person id="ped222" depart="446.50" type="ped_pedestrian">
        <walk from="15971197#1" to="437496156#1"/>
    </person>
    <person id="ped223" depart="448.51" type="ped_pedestrian">
        <walk from="532727925#2" to="335703509"/>
    </person>
    <person id="ped224" depart="450.53" type="ped_pedestrian">
        <walk from="43185669#0" to="171423002#11"/>
    </person>
    <person id="ped225" depart="452.54" type="ped_pedestrian">
        <walk from="-292429062#1" to="175885746#0"/>
    </person>
    <person id="ped226" depart="454.55" type="ped_pedestrian">
        <walk from="170852467" to="196850609#0"/>
    </person>
    <person id="ped227" depart="456.56" type="ped_pedestrian">
        <walk from="34142165#0" to="-4611714#5"/>
    </person>
    <person id="ped228" depart="458.57" type="ped_pedestrian">