<?xml version="1.0" encoding="UTF-8"?>

<!-- generated on 08/22/21 11:42:22 by Eclipse SUMO polyconvert Version 1.7.0
<configuration xmlns:xsi="http://www.w3.org/2001/XMLSchema-instance" xsi:noNamespaceSchemaLocation="http://sumo.dlr.de/xsd/polyconvertConfiguration.xsd">

    <input>
        <net-file value="osm.net.xml"/>
        <osm-files value="osm_bbox.osm.xml"/>
        <osm.keep-full-type value="true"/>
        <type-file value="D:\Program%20Files%20(x86)\Eclipse\Sumo\data\typemap\osmPolyconvert.typ.xml"/>
    </input>

    <output>
        <output-file value="osm.poly.xml"/>
    </output>

    <processing>
        <poi-layer-offset value="5"/>
    </processing>

    <report>
        <verbose value="true"/>
    </report>

</configuration>
-->

<additional xmlns:xsi="http://www.w3.org/2001/XMLSchema-instance" xsi:noNamespaceSchemaLocation="http://sumo.dlr.de/xsd/additional_file.xsd">
    <location netOffset="-388161.49,-5819008.92" convBoundary="-114.52,-3628.06,6364.93,4250.27" origBoundary="13.350216,52.477280,13.446115,52.548335" projParameter="+proj=utm +zone=33 +ellps=WGS84 +datum=WGS84 +units=m +no_defs"/>

    <poly id="100950874" type="building.commercial" color="255,230,230" fill="1" layer="-1.00" shape="3486.831041,1320.010462 3467.501240,1311.469336 3463.356371,1301.145625 3475.089327,1280.778411 3488.444252,1288.005173 3486.831041,1320.010462"/>
    <poly id="100950876" type="building.commercial" color="255,230,230" fill="1" layer="-1.00" shape="3525.168570,1261.777354 3512.265787,1285.731146 3512.167971,1328.563436 3512.236465,1334.114593 3513.605520,1338.012351 3515.561247,1341.429774 3518.198481,1344.665208 3523.193956,1348.649670 3526.371180,1350.215153 3546.183318,1357.866757 3578.008451,1290.263995 3525.168570,1261.777354"/>
    <poly id="100950877" type="building.commercial" color="255,230,230" fill="1" layer="-1.00" shape="3557.018103,1296.870501 3537.323627,1338.745177 3531.071735,1336.568904 3528.395302,1334.936703 3526.791583,1332.090126 3525.740629,1326.616337 3527.449909,1294.953900 3552.850749,1295.037574 3557.018103,1296.870501"/>
    <poly id="100950878" type="building.commercial" color="255,230,230" fill="1" layer="-1.00" shape="3495.803269,1338.072346 3501.124207,1324.245426 3502.542733,1292.333473 3502.463155,1288.429446 3500.920572,1283.745470 3498.433956,1279.649886 3494.481305,1275.864927 3490.531743,1274.060616 3469.041688,1262.685225 3449.787291,1296.816848 3448.014102,1302.876128 3448.148157,1308.626132 3449.839703,1315.131723 3456.694200,1322.758211 3495.803269,1338.072346"/>
    <poly id="102979498" type="landuse.civic_admin" color="194,194,130" fill="1" layer="-3.00" shape="1946.562988,817.330673 1942.210410,816.972095 1837.708170,807.789635 1826.431023,806.807739 1781.954133,802.899601 1746.054224,799.744927 1728.976165,794.375787 1714.894238,843.765681 1713.635790,848.178303 1710.571630,858.929824 1698.418161,871.198807 1544.534079,874.795217 1548.768088,1042.617610 1542.594342,1042.767769 1535.992914,1042.916441 1528.319769,1043.100388 1517.064098,1043.353917 1506.799231,1043.596279 1491.742425,1043.857605 1479.959560,1044.212120 1480.384859,1063.086339 1480.689485,1074.496553 1481.464702,1103.778470 1483.092849,1165.489711 1483.632146,1185.807973 1483.854284,1194.159915 1503.274630,1211.949610 1512.312944,1219.346245 1536.108864,1238.840189 1588.049810,1281.691971 1599.019010,1290.447385 1604.963735,1294.007982 1609.310471,1296.536290 1619.314141,1300.395014 1628.846811,1282.420587 1643.600360,1254.235834 1648.566357,1241.750040 1651.803958,1214.892710 1654.434364,1195.137419 1723.708346,1207.700431 1773.269494,1206.641951 1816.471471,1205.326235 1819.058319,1205.357142 1903.532994,1202.959379 1910.470629,1202.981692 1919.912948,1203.003436 1917.371811,1216.803211 1927.400848,1216.656011 1970.762300,1220.033971 1972.426535,1197.396237 1975.697312,1197.656693 1992.378336,1199.018437 2020.133559,1201.133389 2017.364497,1190.857836 2007.684050,1155.399468 1998.017441,1117.537219 1990.844184,1119.422903 1991.217287,1121.228352 1974.030243,1125.764517 1936.064386,1119.060631 1927.511629,1119.363846 1929.805823,1092.438912 1931.437316,1072.884277 1932.672843,1058.067810 1933.003589,1054.354857 1932.176261,1046.828829 1932.357972,1044.944166 1938.178807,984.901906 1938.939867,978.886989 1939.819478,969.987332 1941.552352,950.408177 1944.505457,916.535911 1945.024035,910.604330 1937.261628,909.843776 1946.562988,817.330673"/>
    <poly id="104392614" type="building.yes" color="255,230,230" fill="1" layer="-1.00" shape="2285.509631,1360.769862 2288.081557,1361.958628 2291.673914,1353.844068 2312.882262,1364.341595 2303.803500,1383.895718 2281.961917,1373.913147 2280.213051,1373.106567 2285.509631,1360.769862"/>
    <poly id="104786904" type="natural.grassland" color="140,196,107" fill="1" layer="-4.00" shape="2847.127685,958.358627 2852.464925,896.514817 2833.068166,894.854475 2827.724382,956.698461 2847.127685,958.358627"/>
    <poly id="104786906" type="building.yes" color="255,230,230" fill="1" layer="-1.00" shape="2861.319372,1062.898627 2924.643615,1074.487066 2917.638968,1084.579829 2913.951052,1089.368842 2909.477803,1095.165686 2907.571254,1097.645045 2893.472716,1096.723480 2882.093173,1095.975145 2882.693936,1088.806704 2904.201131,1090.475910 2905.531583,1083.458158 2865.672808,1076.733571 2864.155980,1077.813321 2862.306913,1087.146049 2863.337751,1088.324897 2863.136135,1089.330871 2862.289699,1089.728046 2862.068480,1094.428835 2858.581341,1094.205984 2855.277384,1093.979059 2855.678632,1091.878132 2859.537303,1072.496929 2861.146148,1062.435121 2861.319372,1062.898627"/>
    <poly id="104786907" type="building.residential" color="255,230,230" fill="1" layer="-1.00" shape="2890.092308,1044.543265 2888.817129,1057.401805 2849.127191,1050.039313 2852.225836,1017.855971 2865.853896,1018.977064 2867.049904,1005.307961 2880.357631,1006.369457 2879.220341,1018.713059 2871.402541,1017.885504 2870.117831,1031.534324 2878.013314,1032.193234 2877.552179,1037.400103 2877.087519,1043.363730 2890.092308,1044.543265"/>
    <poly id="104786910" type="building.yes" color="255,230,230" fill="1" layer="-1.00" shape="2967.805663,1071.335249 2980.477105,1054.773851 2964.381510,1042.190193 2965.087433,1041.273161 2964.306929,1040.667364 2967.381272,1036.670966 2968.092447,1037.211539 2969.035942,1035.988781 2972.992986,1039.027686 2973.751705,1038.042717 2990.533162,1050.944991 2997.792771,1041.625608 3007.846549,1044.718224 2987.676364,1070.837930 2980.188261,1080.563004 2967.805663,1071.335249"/>
    <poly id="104786915" type="building.yes" color="255,230,230" fill="1" layer="-1.00" shape="2965.318238,1064.480281 2951.790559,1062.065880 2950.673646,1068.311062 2964.176148,1070.815041 2965.318238,1064.480281"/>
    <poly id="104786916" type="building.yes" color="255,230,230" fill="1" layer="-1.00" shape="2993.611704,996.740630 2988.771520,1013.828970 3026.852191,1024.833701 3031.653125,1010.862011 3028.987959,1009.752820 3026.433661,1007.828851 3023.731447,1005.663361 3020.031664,1004.120930 3005.720964,1000.076882 2993.611704,996.740630"/>
    <poly id="105187864" type="building.yes" color="255,230,230" fill="1" layer="-1.00" shape="2356.247860,1009.700568 2350.706193,1009.279194 2345.320074,1008.832093 2343.334234,1008.665063 2341.525291,1008.516335 2338.866279,1008.297592 2339.545161,1000.103564 2340.467902,988.243076 2330.570091,987.295966 2329.514168,999.270712 2328.936357,1006.216181 2328.408170,1012.648666 2327.980294,1017.799225 2327.856826,1019.259713 2327.588472,1022.437104 2327.428454,1024.388028 2327.262398,1026.372469 2326.778189,1031.735714 2337.279245,1032.647070 2337.708193,1027.240551 2337.858127,1025.445642 2338.050402,1023.115656 2338.296349,1020.150193 2338.463653,1018.221362 2340.109264,1018.351486 2342.197119,1018.527360 2344.318897,1018.702478 2349.881654,1019.156756 2355.440680,1019.444209 2356.247860,1009.700568"/>
    <poly id="105187864#1" type="landuse.commercial" color="209,209,204" fill="1" layer="-3.00" shape="2356.247860,1009.700568 2350.706193,1009.279194 2345.320074,1008.832093 2343.334234,1008.665063 2341.525291,1008.516335 2338.866279,1008.297592 2339.545161,1000.103564 2340.467902,988.243076 2330.570091,987.295966 2329.514168,999.270712 2328.936357,1006.216181 2328.408170,1012.648666 2327.980294,1017.799225 2327.856826,1019.259713 2327.588472,1022.437104 2327.428454,1024.388028 2327.262398,1026.372469 2326.778189,1031.735714 2337.279245,1032.647070 2337.708193,1027.240551 2337.858127,1025.445642 2338.050402,1023.115656 2338.296349,1020.150193 2338.463653,1018.221362 2340.109264,1018.351486 2342.197119,1018.527360 2344.318897,1018.702478 2349.881654,1019.156756 2355.440680,1019.444209 2356.247860,1009.700568"/>
    <poly id="105187865" type="building.office" color="255,230,230" fill="1" layer="-1.00" shape="2385.851677,943.841799 2484.270463,951.346693 2483.060748,962.835208 2477.200158,1018.660080 2475.236774,1040.169208 2473.262079,1061.778741 2335.523420,1050.357095 2325.376941,1049.515709 2289.456162,1046.535642 2296.506095,969.930724 2331.872147,972.667329 2331.133949,980.940578 2306.020159,978.909412 2303.924713,1004.193874 2328.936357,1006.216181 2328.408170,1012.648666 2327.980294,1017.799225 2306.050357,1016.075217 2303.958986,1041.237186 2325.843061,1043.040100 2326.778189,1031.735714 2337.279245,1032.647070 2336.319014,1043.740588 2351.789028,1044.963730 2352.909784,1031.029068 2364.015161,1031.949227 2364.447372,1026.687299 2386.460884,1028.509847 2385.658446,1038.164354 2449.542556,1043.435928 2453.769168,992.577063 2464.643181,993.469236 2465.756341,980.091166 2416.105089,975.992455 2417.025062,964.910988 2402.301883,963.704327 2400.231653,988.620952 2382.257760,987.142034 2385.071384,953.273256 2385.851677,943.841799"/>
    <poly id="105187865#1" type="landuse.commercial" color="209,209,204" fill="1" layer="-3.00" shape="2385.851677,943.841799 2484.270463,951.346693 2483.060748,962.835208 2477.200158,1018.660080 2475.236774,1040.169208 2473.262079,1061.778741 2335.523420,1050.357095 2325.376941,1049.515709 2289.456162,1046.535642 2296.506095,969.930724 2331.872147,972.667329 2331.133949,980.940578 2306.020159,978.909412 2303.924713,1004.193874 2328.936357,1006.216181 2328.408170,1012.648666 2327.980294,1017.799225 2306.050357,1016.075217 2303.958986,1041.237186 2325.843061,1043.040100 2326.778189,1031.735714 2337.279245,1032.647070 2336.319014,1043.740588 2351.789028,1044.963730 2352.909784,1031.029068 2364.015161,1031.949227 2364.447372,1026.687299 2386.460884,1028.509847 2385.658446,1038.164354 2449.542556,1043.435928 2453.769168,992.577063 2464.643181,993.469236 2465.756341,980.091166 2416.105089,975.992455 2417.025062,964.910988 2402.301883,963.704327 2400.231653,988.620952 2382.257760,987.142034 2385.071384,953.273256 2385.851677,943.841799"/>
    <poly id="105187866" type="building.yes" color="255,230,230" fill="1" layer="-1.00" shape="2400.231653,988.620952 2397.792724,1017.996892 2387.408483,1017.149561 2386.460884,1028.509847 2364.447372,1026.687299 2364.988675,1020.232270 2355.440680,1019.444209 2356.247860,1009.700568 2357.001867,1000.614649 2380.973954,1002.593694 2382.257760,987.142034 2400.231653,988.620952"/>
    <poly id="105187866#1" type="landuse.commercial" color="209,209,204" fill="1" layer="-3.00" shape="2400.231653,988.620952 2397.792724,1017.996892 2387.408483,1017.149561 2386.460884,1028.509847 2364.447372,1026.687299 2364.988675,1020.232270 2355.440680,1019.444209 2356.247860,1009.700568 2357.001867,1000.614649 2380.973954,1002.593694 2382.257760,987.142034 2400.231653,988.620952"/>
    <poly id="105347619" type="building.apartments" color="255,230,230" fill="1" layer="-1.00" shape="2309.065272,1256.499456 2308.858125,1256.949196 2308.029286,1258.737037 2302.180336,1256.097061 2304.537879,1251.036869 2300.637643,1247.819179 2300.188749,1248.385605 2297.427009,1246.299733 2297.875157,1245.699941 2292.989828,1241.836631 2291.431520,1243.785452 2290.529981,1245.964391 2291.325421,1246.324940 2289.900544,1249.383546 2282.929423,1246.646290 2275.958046,1243.897922 2279.596876,1233.912866 2279.139986,1231.997996 2279.645344,1230.617984 2280.990766,1230.076011 2283.011208,1224.511475 2284.212619,1222.993488 2283.182592,1222.159697 2285.458007,1219.193339 2286.536270,1220.059434 2287.341818,1219.051049 2293.639361,1223.839747 2294.073942,1223.240259 2304.139338,1231.093828 2304.983106,1229.973314 2308.492982,1232.732374 2312.009887,1235.502408 2311.206327,1236.599765 2321.630920,1244.734655 2317.300221,1253.833808 2313.906942,1251.127772 2310.349838,1251.719201 2308.397493,1256.080411 2309.065272,1256.499456"/>
    <poly id="105347629" type="building.apartments" color="255,230,230" fill="1" layer="-1.00" shape="2336.822418,1280.582205 2347.316409,1269.664986 2353.776049,1275.941244 2360.242457,1282.217359 2360.260466,1285.755562 2342.958428,1303.045349 2331.583021,1294.575593 2333.854738,1292.354896 2339.939299,1286.410189 2341.387182,1284.986854 2336.822418,1280.582205"/>
    <poly id="105347632" type="building.residential" color="255,230,230" fill="1" layer="-1.00" shape="2324.663246,1267.723423 2325.086745,1267.235462 2320.397663,1262.433010 2318.590888,1264.198209 2319.062916,1264.666143 2316.730948,1266.621130 2318.851463,1268.565565 2315.870912,1275.208688 2314.434026,1274.695566 2313.294605,1276.557119 2308.333446,1272.639852 2311.795561,1265.373930 2314.635247,1259.412743 2317.300221,1253.833808 2321.630920,1244.734655 2334.251625,1256.982216 2347.316409,1269.664986 2336.822418,1280.582205 2335.402915,1282.060545 2329.021698,1288.701808 2328.862358,1288.861159 2324.301924,1285.257619 2325.744083,1283.578470 2325.328074,1283.187176 2332.873163,1275.473880 2328.252437,1270.692149 2327.777468,1271.003218 2324.663246,1267.723423"/>
    <poly id="105347635" type="building.hotel" color="255,230,230" fill="1" layer="-1.00" shape="2207.386283,1323.237401 2213.421930,1324.515504 2215.703601,1322.439186 2218.153012,1316.030439 2220.409608,1310.104500 2232.653697,1314.314906 2228.768682,1324.817389 2224.461321,1336.464354 2223.686739,1338.551445 2209.531490,1335.986235 2194.333761,1333.244109 2184.908380,1331.541183 2187.751425,1316.644293 2194.050674,1317.871960 2193.772217,1319.380434 2194.698861,1320.750650 2197.316948,1321.270674 2197.578976,1320.241059 2200.835776,1320.791296 2200.719575,1321.361410 2207.503232,1322.700653 2207.386283,1323.237401"/>
    <poly id="105347637" type="building.apartments" color="255,230,230" fill="1" layer="-1.00" shape="2172.471175,1329.315952 2174.418141,1318.356073 2181.514632,1319.721658 2183.337584,1309.588010 2188.887590,1310.698915 2187.751425,1316.644293 2184.908380,1331.541183 2172.471175,1329.315952"/>
    <poly id="105347640" type="building.apartments" color="255,230,230" fill="1" layer="-1.00" shape="2155.290726,1326.240004 2157.341719,1315.077488 2162.590729,1316.083827 2170.546025,1317.608207 2174.418141,1318.356073 2172.471175,1329.315952 2155.290726,1326.240004"/>
    <poly id="105349132" type="building.hotel" color="255,230,230" fill="1" layer="-1.00" shape="2256.079023,1335.300508 2252.529156,1334.089131 2253.903073,1330.575417 2257.521531,1331.818643 2258.345858,1329.830594 2260.644379,1324.259823 2264.910510,1325.933671 2275.870037,1332.498613 2268.048819,1349.098086 2252.949904,1342.881726 2255.087518,1337.704023 2256.079023,1335.300508"/>
    <poly id="105349133" type="building.commercial" color="255,230,230" fill="1" layer="-1.00" shape="2269.844976,1257.365670 2270.613620,1255.011656 2272.157456,1254.843583 2272.573303,1253.710382 2278.357051,1255.862163 2278.559965,1255.223345 2280.134538,1255.822398 2281.709110,1256.421451 2281.478311,1257.027510 2285.078701,1258.371311 2286.696084,1259.670453 2286.948032,1260.009776 2287.105994,1260.395712 2287.162690,1260.806168 2287.111086,1261.230175 2286.949938,1261.612121 2286.699599,1261.951552 2286.372642,1262.203676 2285.598917,1262.510304 2285.193601,1262.597265 2284.366415,1262.638025 2283.446703,1265.217970 2284.625958,1267.261341 2287.064054,1268.230547 2287.405459,1267.410588 2293.352934,1269.903683 2292.964537,1270.746948 2295.396592,1271.749677 2298.234082,1265.387932 2297.898916,1265.273024 2302.180336,1256.097061 2308.029286,1258.737037 2308.934515,1259.150771 2307.048842,1263.154405 2311.795561,1265.373930 2308.333446,1272.639852 2307.659225,1274.057021 2302.937094,1272.026121 2298.744697,1280.933028 2303.496762,1282.785211 2301.564609,1286.834398 2265.389588,1273.021875 2265.646028,1272.348476 2264.651239,1271.269092 2265.525191,1268.768061 2266.990597,1268.735273 2269.039386,1263.225734 2270.793521,1258.501728 2269.844976,1257.365670"/>
    <poly id="105349135" type="building.hotel" color="255,230,230" fill="1" layer="-1.00" shape="2261.323931,1337.642367 2260.595395,1339.361207 2262.904064,1340.311041 2264.844525,1340.579198 2266.288389,1338.977886 2266.161492,1337.856828 2267.429726,1335.079910 2268.263749,1334.738546 2268.823366,1333.357318 2267.504192,1332.340830 2265.829923,1332.745505 2263.727266,1331.902337 2263.246324,1333.159400 2262.011470,1333.787927 2260.763591,1336.564391 2261.323931,1337.642367"/>
    <poly id="105349136" type="building.apartments" color="255,230,230" fill="1" layer="-1.00" shape="2265.294923,1310.958315 2265.733095,1311.126554 2264.522980,1314.681111 2264.008938,1314.458931 2262.598783,1318.173752 2263.826650,1319.659645 2264.353016,1319.825910 2264.628313,1319.085323 2265.790037,1318.525199 2265.935871,1318.065701 2273.904116,1321.081068 2274.415185,1319.956864 2277.389892,1321.247891 2276.322869,1324.220603 2279.259172,1325.312191 2277.405731,1329.237223 2275.870037,1332.498613 2264.910510,1325.933671 2260.644379,1324.259823 2245.757369,1318.417084 2247.339549,1313.897213 2248.420168,1314.262500 2248.580564,1313.847186 2249.933547,1314.250889 2254.677799,1302.104554 2253.500706,1301.674658 2253.667390,1301.236948 2252.360151,1300.754326 2254.043112,1296.187693 2256.685475,1297.185696 2290.542898,1309.959479 2287.229920,1316.910507 2283.918309,1315.426713 2283.310034,1315.240022 2283.987859,1313.377661 2280.661365,1312.139011 2279.543365,1314.957075 2276.766891,1313.728378 2277.186964,1312.784253 2268.909435,1309.597757 2269.223697,1308.778404 2268.926631,1307.939345 2269.195642,1307.221154 2268.607719,1307.034009 2266.607301,1307.423726 2265.294923,1310.958315"/>
    <poly id="105349138" type="building.apartments" color="255,230,230" fill="1" layer="-1.00" shape="2284.634763,1301.334149 2293.168851,1304.459295 2290.542898,1309.959479 2256.685475,1297.185696 2261.037520,1285.103784 2265.389588,1273.021875 2301.564609,1286.834398 2298.776991,1292.694279 2289.180563,1289.414844 2288.230981,1291.873052 2285.157233,1290.706639 2285.526270,1289.908317 2277.315374,1286.364228 2277.587374,1285.779502 2277.308986,1284.561684 2277.525716,1283.933684 2275.017961,1284.401514 2273.729721,1287.802028 2274.091212,1288.183409 2272.805462,1291.695145 2272.148385,1291.754356 2270.838736,1295.411287 2272.307407,1297.648478 2272.641079,1297.696651 2273.049143,1296.519113 2273.801762,1296.179572 2274.022539,1295.429076 2282.373221,1298.547180 2282.735290,1297.437438 2285.632892,1298.618917 2284.634763,1301.334149"/>
    <poly id="105350238" type="building.commercial" color="255,230,230" fill="1" layer="-1.00" shape="2108.879489,1278.184260 2122.322754,1281.377161 2122.204069,1281.836056 2121.063627,1288.193273 2115.916092,1287.173576 2113.022120,1286.459477 2107.658288,1285.177570 2107.935226,1283.602357 2108.879489,1278.184260"/>
    <poly id="105350239" type="building.yes" color="255,230,230" fill="1" layer="-1.00" shape="2142.757650,1352.158970 2154.322704,1354.236742 2151.384770,1370.649150 2139.819753,1368.571385 2142.757650,1352.158970"/>
    <poly id="105350241" type="building.commercial" color="255,230,230" fill="1" layer="-1.00" shape="2134.329354,1291.946569 2120.966790,1288.718445 2121.063627,1288.193273 2122.204069,1281.836056 2140.275199,1286.182757 2138.381933,1296.507169 2133.612585,1295.401088 2134.329354,1291.946569"/>
    <poly id="105350242" type="building.yes" color="255,230,230" fill="1" layer="-1.00" shape="2118.218008,1347.500956 2130.431817,1349.753308 2127.438770,1367.034929 2115.117950,1364.851750 2118.218008,1347.500956"/>
    <poly id="105350243" type="building.apartments" color="255,230,230" fill="1" layer="-1.00" shape="2154.298319,1289.507415 2149.118923,1288.276971 2140.370677,1286.202873 2142.030410,1279.088473 2150.819374,1281.161662 2154.906817,1282.127245 2155.154772,1281.075687 2163.643972,1283.099974 2162.732122,1286.937198 2161.709117,1291.266531 2154.298319,1289.507415"/>
    <poly id="105350244" type="building.apartments" color="255,230,230" fill="1" layer="-1.00" shape="2161.709117,1291.266531 2157.341719,1315.077488 2155.290726,1326.240004 2144.468325,1324.290252 2142.955503,1324.023691 2133.646163,1322.351646 2135.629958,1311.524456 2142.921969,1312.829968 2142.994276,1311.815726 2143.927951,1311.983983 2145.207314,1312.433818 2145.727151,1312.611345 2147.351148,1313.598718 2149.933829,1314.052743 2150.946778,1308.366052 2150.217378,1308.226601 2151.688137,1299.948028 2152.954394,1292.842445 2153.696618,1292.948226 2154.298319,1289.507415 2161.709117,1291.266531"/>
    <poly id="105350245" type="building.apartments" color="255,230,230" fill="1" layer="-1.00" shape="2100.163066,1291.465761 2101.813046,1282.404214 2107.935226,1283.602357 2107.658288,1285.177570 2107.117235,1288.294324 2102.172861,1316.636118 2092.985856,1314.972536 2083.792060,1313.309123 2087.842129,1290.195118 2093.956024,1291.326663 2092.543729,1299.181093 2091.836960,1303.080503 2098.325964,1304.292668 2098.735701,1301.980050 2098.101526,1301.849601 2098.610649,1301.548872 2100.388192,1291.516355 2100.163066,1291.465761"/>
    <poly id="105350248" type="building.apartments" color="255,230,230" fill="1" layer="-1.00" shape="2130.694506,1310.577887 2135.629958,1311.524456 2133.646163,1322.351646 2124.581796,1320.707513 2115.517422,1319.063397 2117.496942,1308.047123 2128.731179,1310.199018 2129.010115,1308.712783 2130.973442,1309.091653 2130.694506,1310.577887"/>
    <poly id="105350250" type="building.apartments" color="255,230,230" fill="1" layer="-1.00" shape="2119.170528,1273.680643 2134.851497,1277.379830 2140.282797,1254.401854 2145.844892,1255.746123 2145.479247,1257.301065 2146.509406,1257.533928 2147.689310,1252.633564 2153.244122,1253.955749 2148.642535,1275.190330 2143.195738,1274.143924 2142.203678,1278.339036 2142.030410,1279.088473 2140.370677,1286.202873 2122.204069,1281.836056 2122.322754,1281.377161 2108.879489,1278.184260 2111.039641,1270.079397 2119.527080,1272.326202 2119.170528,1273.680643"/>
    <poly id="105350251" type="building.apartments" color="255,230,230" fill="1" layer="-1.00" shape="2102.172861,1316.636118 2107.117235,1288.294324 2112.508755,1289.297418 2113.164779,1289.494145 2112.074139,1295.649950 2112.490969,1295.774144 2112.044395,1298.866525 2111.622027,1298.798095 2111.294498,1300.841804 2110.620615,1300.756754 2110.026341,1303.618764 2109.427583,1303.554286 2108.887086,1306.392835 2112.056957,1307.000600 2117.496942,1308.047123 2115.517422,1319.063397 2109.993241,1318.196806 2102.172861,1316.636118"/>
    <poly id="105350252" type="building.yes" color="255,230,230" fill="1" layer="-1.00" shape="2153.525555,1391.376631 2148.102037,1390.151659 2147.706067,1390.049252 2148.862207,1384.392734 2147.659214,1382.806163 2137.461820,1380.875813 2135.730948,1381.782549 2134.765389,1386.856160 2129.331837,1385.486773 2138.119849,1338.742693 2162.581648,1343.257890 2153.525555,1391.376631"/>
    <poly id="105350633" type="building.apartments" color="255,230,230" fill="1" layer="-1.00" shape="1953.892345,1305.539543 1948.216614,1304.576384 1920.485717,1299.590359 1920.092394,1305.352221 1918.717791,1325.457493 1949.865655,1327.851961 1950.905737,1320.662368 1951.466494,1317.823344 1953.892345,1305.539543"/>
    <poly id="105350634" type="building.apartments" color="255,230,230" fill="1" layer="-1.00" shape="2070.361769,1296.762782 2069.140657,1296.489705 2070.078287,1291.383323 2073.778595,1270.836519 2073.847987,1270.601282 2079.736977,1271.993788 2074.735242,1298.678871 2075.314128,1300.279414 2077.017419,1300.563941 2077.015033,1299.851821 2080.900749,1300.599309 2081.618296,1299.603989 2080.676195,1298.757142 2085.086765,1273.253725 2090.586552,1274.543690 2089.762290,1279.258056 2087.842129,1290.195118 2083.792060,1313.309123 2075.879675,1311.884071 2067.960500,1310.459184 2070.361769,1296.762782"/>
    <poly id="105350635" type="building.apartments" color="255,230,230" fill="1" layer="-1.00" shape="2047.549219,1306.788366 2049.531388,1295.593957 2049.977570,1293.091346 2055.505532,1294.124702 2054.996793,1296.561948 2057.982507,1297.129296 2058.141445,1296.346793 2061.835961,1297.042914 2061.684056,1297.836387 2063.831317,1298.244490 2064.238741,1296.132219 2069.140657,1296.489705 2070.361769,1296.762782 2067.960500,1310.459184 2057.758131,1308.618127 2047.549219,1306.788366"/>
    <poly id="105350636" type="building.apartments" color="255,230,230" fill="1" layer="-1.00" shape="2016.062877,1301.107060 2017.820848,1289.906536 2028.616497,1291.867740 2028.923355,1303.433685 2022.496635,1302.275854 2016.062877,1301.107060"/>
    <poly id="105350637" type="building.apartments" color="255,230,230" fill="1" layer="-1.00" shape="2005.853681,1299.266264 2007.700324,1288.086002 2017.820848,1289.906536 2016.062877,1301.107060 2010.958280,1300.186660 2005.853681,1299.266264"/>
    <poly id="105350638" type="building.apartments" color="255,230,230" fill="1" layer="-1.00" shape="1993.967416,1285.600956 2007.700324,1288.086002 2005.853681,1299.266264 1999.528962,1298.117302 1993.204488,1296.979470 1993.967416,1285.600956"/>
    <poly id="105350639" type="building.apartments" color="255,230,230" fill="1" layer="-1.00" shape="1980.677898,1294.712214 1982.606896,1283.574604 1993.967416,1285.600956 1993.204488,1296.979470 1986.941070,1295.840277 1980.677898,1294.712214"/>
    <poly id="105350640" type="building.apartments" color="255,230,230" fill="1" layer="-1.00" shape="1963.523823,1291.614083 1964.410548,1280.310678 1982.606896,1283.574604 1980.677898,1294.712214 1972.104131,1293.157504 1963.523823,1291.614083"/>
    <poly id="105350641" type="building.apartments" color="255,230,230" fill="1" layer="-1.00" shape="1938.184073,1264.029540 1936.920164,1277.578088 1942.196155,1278.572461 1951.730035,1280.261364 1958.253032,1281.472583 1958.707996,1278.758339 1964.452844,1279.775599 1964.410548,1280.310678 1963.523823,1291.614083 1921.452622,1284.000968 1922.269014,1275.314147 1923.078627,1266.627478 1933.630971,1264.699233 1938.184073,1264.029540"/>
    <poly id="105350642" type="building.apartments" color="255,230,230" fill="1" layer="-1.00" shape="2028.616497,1291.867740 2049.531388,1295.593957 2047.549219,1306.788366 2038.233023,1305.116654 2028.923355,1303.433685 2028.616497,1291.867740"/>
    <poly id="105350643" type="building.apartments" color="255,230,230" fill="1" layer="-1.00" shape="1946.182560,1316.473053 1932.263141,1314.749052 1931.975198,1319.762991 1945.864857,1320.463908 1946.182560,1316.473053"/>
    <poly id="105352750" type="building.apartments" color="255,230,230" fill="1" layer="-1.00" shape="1818.185993,1358.383076 1821.358873,1359.124118 1820.925459,1360.981059 1823.245568,1361.529833 1825.893066,1362.149149 1826.345584,1360.236140 1832.097616,1361.575786 1836.910971,1341.070527 1838.212236,1335.544197 1840.477581,1336.071955 1841.543037,1331.530164 1838.704568,1330.870618 1839.757704,1326.384742 1834.121465,1325.064740 1833.638266,1327.123098 1833.324194,1327.041131 1829.464906,1343.485593 1823.235211,1342.034275 1823.495161,1340.915662 1822.430830,1340.672507 1820.968686,1346.892376 1824.530520,1347.724831 1823.780844,1350.913077 1820.137103,1350.060207 1818.185993,1358.383076"/>
    <poly id="105352754" type="building.commercial" color="255,230,230" fill="1" layer="-1.00" shape="1743.866792,1407.212703 1748.836135,1401.514859 1755.712697,1392.491462 1761.871734,1382.950073 1765.558023,1376.335230 1768.887297,1369.539243 1772.381533,1370.384308 1774.374255,1370.862524 1775.653024,1367.962826 1786.347285,1370.548927 1790.414635,1371.525785 1787.757715,1382.568570 1784.830074,1381.866550 1779.371436,1392.070959 1783.556922,1394.680934 1783.445342,1394.850357 1777.711963,1404.003808 1777.600633,1404.184354 1773.394549,1401.563720 1766.716958,1410.682769 1761.432184,1417.144372 1763.189992,1419.552962 1754.062662,1426.278993 1751.682317,1423.049820 1745.066322,1414.073808 1747.220144,1411.755327 1745.813033,1409.850734 1743.866792,1407.212703"/>
    <poly id="105352757" type="building.apartments" color="255,230,230" fill="1" layer="-1.00" shape="1917.495078,1339.628278 1929.399663,1340.496108 1955.636105,1341.810177 1961.744529,1342.396420 1961.283924,1344.253956 1960.870678,1351.852336 1955.549230,1351.248436 1954.701690,1361.271277 1952.558689,1361.052298 1952.125110,1365.323946 1956.674193,1365.689234 1955.290168,1372.675117 1935.628793,1369.143733 1915.141543,1366.921782 1916.606863,1349.952490 1917.495078,1339.628278"/>
    <poly id="105352761" type="building.apartments" color="255,230,230" fill="1" layer="-1.00" shape="1868.915431,1298.489208 1854.201089,1297.339663 1849.767764,1296.994123 1849.747621,1297.306152 1850.529559,1297.366484 1850.434171,1298.559293 1848.401183,1298.404655 1846.817558,1318.559162 1849.115872,1318.741224 1849.020984,1319.956278 1848.272971,1319.895184 1848.245795,1320.196243 1867.128039,1321.663896 1867.646411,1316.032752 1867.326803,1316.006546 1867.294090,1316.363368 1866.334767,1316.262506 1867.074917,1303.882976 1868.094552,1303.949101 1868.075407,1304.305618 1868.435971,1304.342033 1868.915431,1298.489208"/>