<?xml version="1.0" encoding="UTF-8"?>

<!-- generated on 08/22/21 11:42:35 by Eclipse SUMO duarouter Version 1.7.0
<configuration xmlns:xsi="http://www.w3.org/2001/XMLSchema-instance" xsi:noNamespaceSchemaLocation="http://sumo.dlr.de/xsd/duarouterConfiguration.xsd">

    <input>
        <net-file value="d:\Program%20Files%20(x86)\Eclipse\Sumo\tools\2021-08-22-11-42-08\osm.net.xml"/>
        <route-files value="d:\Program%20Files%20(x86)\Eclipse\Sumo\tools\2021-08-22-11-42-08\osm.bicycle.trips.xml"/>
    </input>

    <output>
        <output-file value="d:\Program%20Files%20(x86)\Eclipse\Sumo\tools\2021-08-22-11-42-08\osm.bicycle.trips.xml.tmp"/>
        <write-trips value="true"/>
    </output>

    <time>
        <begin value="0"/>
        <end value="3600"/>
    </time>

    <report>
        <no-warnings value="true"/>
        <ignore-errors value="true"/>
        <no-step-log value="true"/>
    </report>

</configuration>
-->

<routes xmlns:xsi="http://www.w3.org/2001/XMLSchema-instance" xsi:noNamespaceSchemaLocation="http://sumo.dlr.de/xsd/routes_file.xsd">
    <vType id="bike_bicycle" vClass="bicycle"/>
    <trip id="bike0" type="bike_bicycle" depart="0.00" departLane="best" from="24913267#0" to="-147066248#0"/>
    <trip id="bike1" type="bike_bicycle" depart="4.49" departLane="best" from="-4597324#0" to="-43156728#0"/>
    <trip id="bike2" type="bike_bicycle" depart="8.99" departLane="best" from="38347139#0" to="327941679#2"/>
    <trip id="bike3" type="bike_bicycle" depart="13.48" departLane="best" from="591200194#1" to="-194177692#0"/>
    <trip id="bike5" type="bike_bicycle" depart="22.47" departLane="best" departSpeed="max" from="-35557161#6" to="194073678"/>
    <trip id="bike6" type="bike_bicycle" depart="26.97" departLane="best" from="-136571494#0" to="-35557161#1"/>
    <trip id="bike8" type="bike_bicycle" depart="35.96" departLane="best" from="-35578576#0" to="236092221#3"/>
    <trip id="bike9" type="bike_bicycle" depart="40.45" departLane="best" from="4611693#0" to="-111833186#1"/>
    <trip id="bike10" type="bike_bicycle" depart="44.95" departLane="best" from="4610610#0" to="340498982#8"/>
    <trip id="bike11" type="bike_bicycle" depart="49.44" departLane="best" departSpeed="max" from="-589906053#1" to="-25945967"/>
    <trip id="bike12" type="bike_bicycle" depart="53.93" departLane="best" from="796446835#2" to="-710761407#2"/>
    <trip id="bike13" type="bike_bicycle" depart="58.43" departLane="best" departSpeed="max" from="-194167259#1" to="-195091665#0"/>
    <trip id="bike15" type="bike_bicycle" depart="67.42" departLane="best" from="4610610#2" to="409506038#1"/>
    <trip id="bike16" type="bike_bicycle" depart="71.91" departLane="best" departSpeed="max" from="194167256#0" to="894814132"/>
    <trip id="bike17" type="bike_bicycle" depart="76.41" departLane="best" from="-805898294#0" to="202156994#0"/>
    <trip id="bike18" type="bike_bicycle" depart="80.90" departLane="best" from="4611714#6" to="24913267#0"/>
    <trip id="bike19" type="bike_bicycle" depart="85.40" departLane="best" from="492340367#0" to="23017852#1"/>
    <trip id="bike20" type="bike_bicycle" depart="89.89" departLane="best" from="339201177#4" to="-15973619#1"/>
    <trip id="bike21" type="bike_bicycle" depart="94.39" departLane="best" departSpeed="max" from="-389101385" to="-47423540#0"/>
    <trip id="bike22" type="bike_bicycle" depart="98.88" departLane="best" from="-188240629#0" to="-4381079#3"/>
    <trip id="bike23" type="bike_bicycle" depart="103.37" departLane="best" from="-195089288#1" to="-4611711#1"/>
    <trip id="bike24" type="bike_bicycle" depart="107.87" departLane="best" from="243854725#0" to="-92437984#1"/>
    <trip id="bike25" type="bike_bicycle" depart="112.36" departLane="best" departSpeed="max" from="-774607081" to="-387892378"/>
    <trip id="bike26" type="bike_bicycle" depart="116.86" departLane="best" from="-4588219#0" to="774607081"/>
    <trip id="bike27" type="bike_bicycle" depart="121.35" departLane="best" from="25302636#1" to="24243052#2"/>
    <trip id="bike28" type="bike_bicycle" depart="125.85" departLane="best" from="-25945966" to="4067932#1"/>
    <trip id="bike29" type="bike_bicycle" depart="130.34" departLane="best" from="-24509317#1" to="111833186#2"/>
    <trip id="bike30" type="bike_bicycle" depart="134.84" departLane="best" from="894814140#3" to="28251222#1"/>
    <trip id="bike31" type="bike_bicycle" depart="139.33" departLane="best" from="195089283" to="330965609"/>
    <trip id="bike33" type="bike_bicycle" depart="148.32" departLane="best" departSpeed="max" from="-389101385" to="-153698387#1"/>
    <trip id="bike34" type="bike_bicycle" depart="152.81" departLane="best" from="-465376254" to="-4611693#4"/>
    <trip id="bike35" type="bike_bicycle" depart="157.31" departLane="best" from="-339201177#4" to="796446835#0"/>
    <trip id="bike37" type="bike_bicycle" depart="166.30" departLane="best" from="27016828" to="132460631#0"/>
    <trip id="bike38" type="bike_bicycle" depart="170.79" departLane="best" departSpeed="max" from="67713451#0" to="15971197#0"/>
    <trip id="bike39" type="bike_bicycle" depart="175.29" departLane="best" from="-4570580#3" to="-4588222#0"/>
    <trip id="bike40" type="bike_bicycle" depart="179.78" departLane="best" departSpeed="max" from="195091665#0" to="-4610610#0"/>
    <trip id="bike41" type="bike_bicycle" depart="184.28" departLane="best" from="202157031#3" to="67713117#3"/>
    <trip id="bike42" type="bike_bicycle" depart="188.77" departLane="best" departSpeed="max" from="-931745735" to="-410310755#6"/>
    <trip id="bike43" type="bike_bicycle" depart="193.27" departLane="best" from="930343902" to="194167249"/>
    <trip id="bike44" type="bike_bicycle" depart="197.76" departLane="best" from="-194167255#1" to="-15973619#10"/>
    <trip id="bike45" type="bike_bicycle" depart="202.26" departLane="best" from="-195104960#5" to="25294729#1"/>
    <trip id="bike46" type="bike_bicycle" depart="206.75" departLane="best" from="4597324#3" to="136571494#3"/>
    <trip id="bike48" type="bike_bicycle" depart="215.74" departLane="best" from="930343901#3" to="195088844"/>
    <trip id="bike50" type="bike_bicycle" depart="224.73" departLane="best" from="-120675240#3" to="38347139#0"/>
    <trip id="bike51" type="bike_bicycle" depart="229.22" departLane="best" from="320420913#0" to="195104960#1"/>
    <trip id="bike52" type="bike_bicycle" depart="233.72" departLane="best" from="-4588219#0" to="292429056#0"/>
    <trip id="bike53" type="bike_bicycle" depart="238.21" departLane="best" from="-195397541#0" to="147066248#6"/>
    <trip id="bike55" type="bike_bicycle" depart="247.20" departLane="best" from="541763974" to="-4610610#1"/>
    <trip id="bike56" type="bike_bicycle" depart="251.70" departLane="best" from="169195795#1" to="-32508516#0"/>
    <trip id="bike57" type="bike_bicycle" depart="256.19" departLane="best" from="67713117#6" to="541763975"/>
    <trip id="bike58" type="bike_bicycle" depart="260.68" departLane="best" from="-4611708#2" to="28251222#0"/>
    <trip id="bike59" type="bike_bicycle" depart="265.18" departLane="best" from="236092221#3" to="-25302636#1"/>
    <trip id="bike60" type="bike_bicycle" depart="269.67" departLane="best" from="4381079#2" to="195105328#1"/>
    <trip id="bike61" type="bike_bicycle" depart="274.17" departLane="best" from="4570580#2" to="195089283"/>
    <trip id="bike62" type="bike_bicycle" depart="278.66" departLane="best" from="-10270987" to="-66071366#4"/>
    <trip id="bike63" type="bike_bicycle" depart="283.16" departLane="best" from="-133885743#0" to="76212441#6"/>
    <trip id="bike65" type="bike_bicycle" depart="292.15" departLane="best" from="-4611714#1" to="-168937986#1"/>
    <trip id="bike68" type="bike_bicycle" depart="305.63" departLane="best" from="-168937986#4" to="4412932#0"/>
    <trip id="bike69" type="bike_bicycle" depart="310.12" departLane="best" from="4402037" to="-23121445#0"/>
    <trip id="bike70" type="bike_bicycle" depart="314.62" departLane="best" from="154043358#1" to="202156991#1"/>
    <trip id="bike71" type="bike_bicycle" depart="319.11" departLane="best" from="-4570580#3" to="54781811#1"/>
    <trip id="bike73" type="bike_bicycle" depart="328.10" departLane="best" departSpeed="max" from="194167258#0" to="409506038#1"/>
    <trip id="bike74" type="bike_bicycle" depart="332.60" departLane="best" from="-327735421" to="-561049082"/>
    <trip id="bike75" type="bike_bicycle" depart="337.09" departLane="best" from="930343901#2" to="305153173"/>
    <trip id="bike76" type="bike_bicycle" depart="341.59" departLane="best" departSpeed="max" from="133885746#0" to="194177683"/>
    <trip id="bike77" type="bike_bicycle" depart="346.08" departLane="best" from="-202157003#0" to="-43231842#0"/>
    <trip id="bike79" type="bike_bicycle" depart="355.07" departLane="best" departSpeed="max" from="-389101391" to="-410310755#8"/>
    <trip id="bike80" type="bike_bicycle" depart="359.56" departLane="best" from="-169660686#0" to="25777238"/>
    <trip id="bike81" type="bike_bicycle" depart="364.06" departLane="best" departSpeed="max" from="-389101385" to="68647306#3"/>
    <trip id="bike82" type="bike_bicycle" depart="368.55" departLane="best" from="48859715#1" to="-194069449#1"/>
    <trip id="bike83" type="bike_bicycle" depart="373.05" departLane="best" from="-410310755#4" to="326116285#0"/>
    <trip id="bike84" type="bike_bicycle" depart="377.54" departLane="best" from="-35557161#0" to="-23121445#5"/>
    <trip id="bike85" type="bike_bicycle" depart="382.04" departLane="best" from="753316505#0" to="22972454"/>
    <trip id="bike86" type="bike_bicycle" depart="386.53" departLane="best" from="154041918#1" to="4597326"/>
    <trip id="bike87" type="bike_bicycle" depart="391.03" departLane="best" from="4610610#3" to="-339201177#1"/>
    <trip id="bike88" type="bike_bicycle" depart="395.52" departLane="best" from="-194177700#0" to="147066248#1"/>
    <trip id="bike90" type="bike_bicycle" depart="404.51" departLane="best" departSpeed="max" from="36259518" to="327735416"/>
    <trip id="bike91" type="bike_bicycle" depart="409.00" departLane="best" from="894814136" to="-195104956#0"/>
    <trip id="bike92" type="bike_bicycle" depart="413.50" departLane="best" departSpeed="max" from="-974193161" to="-727277375"/>
    <trip id="bike93" type="bike_bicycle" depart="417.99" departLane="best" from="492340367#0" to="-4597322#1"/>
    <trip id="bike94" type="bike_bicycle" depart="422.49" departLane="best" from="-320462163#3" to="154041918#1"/>
    <trip id="bike96" type="bike_bicycle" depart="431.48" departLane="best" from="-43376477#1" to="755551646#1"/>
    <trip id="bike97" type="bike_bicycle" depart="435.97" departLane="best" from="133885750#1" to="532727925#2"/>
    <trip id="bike98" type="bike_bicycle" depart="440.47" departLane="best" departSpeed="max" from="194983930#0" to="-15973619#3"/>
    <trip id="bike99" type="bike_bicycle" depart="444.96" departLane="best" departSpeed="max" from="956605152#0" to="47707170#5"/>
    <trip id="bike100" type="bike_bicycle" depart="449.46" departLane="best" from="840229278#1" to="76212438#3"/>
    <trip id="bike101" type="bike_bicycle" depart="453.95" departLane="best" from="4773465#2" to="-292429063#1"/>
    <trip id="bike102" type="bike_bicycle" depart="458.44" departLane="best" from="15973619#10" to="-409506038#1"/>
    <trip id="bike103" type="bike_bicycle" depart="462.94" departLane="best" departSpeed="max" from="-973075794" to="-168937986#3"/>
    <trip id="bike104" type="bike_bicycle" depart="467.43" departLane="best" departSpeed="max" from="-822122788#2" to="899946804"/>
    <trip id="bike105" type="bike_bicycle" depart="471.93" departLane="best" from="-4588211#1" to="4597326"/>
    <trip id="bike106" type="bike_bicycle" depart="476.42" departLane="best" from="147066248#6" to="136571494#3"/>
    <trip id="bike107" type="bike_bicycle" depart="480.92" departLane="best" from="796446835#2" to="935142775"/>
    <trip id="bike108" type="bike_bicycle" depart="485.41" departLane="best" from="195088844" to="38208961"/>
    <trip id="bike109" type="bike_bicycle" depart="489.91" departLane="best" from="-23809670#3" to="-4840977#1"/>
    <trip id="bike110" type="bike_bicycle" depart="494.40" departLane="best" from="840229278#1" to="23017852#3"/>
    <trip id="bike112" type="bike_bicycle" depart="503.39" departLane="best" from="-15973619#2" to="23121445#5"/>
    <trip id="bike113" type="bike_bicycle" depart="507.89" departLane="best" from="169195795#6" to="490365295#1"/>
    <trip id="bike114" type="bike_bicycle" depart="512.38" departLane="best" from="-24242882#2" to="840229276#1"/>
    <trip id="bike115" type="bike_bicycle" depart="516.87" departLane="best" from="-188240629#0" to="-327735418"/>
    <trip id="bike116" type="bike_bicycle" depart="521.37" departLane="best" from="22972473#3" to="327735421"/>
    <trip id="bike117" type="bike_bicycle" depart="525.86" departLane="best" from="-409506039#1" to="-210668637#0"/>
    <trip id="bike118" type="bike_bicycle" depart="530.36" departLane="best" from="589906053#0" to="-4588222#0"/>
    <trip id="bike119" type="bike_bicycle" depart="534.85" departLane="best" from="22972473#0" to="24913267#3"/>
    <trip id="bike121" type="bike_bicycle" depart="543.84" departLane="best" from="194069449#1" to="766868095#2"/>
    <trip id="bike122" type="bike_bicycle" depart="548.34" departLane="best" departSpeed="max" from="-330840136#1" to="375935042"/>
    <trip id="bike123" type="bike_bicycle" depart="552.83" departLane="best" from="-410310755#6" to="132460631#0"/>
    <trip id="bike124" type="bike_bicycle" depart="557.33" departLane="best" departSpeed="max" from="30721662#0" to="-51912365#0"/>
    <trip id="bike126" type="bike_bicycle" depart="566.31" departLane="best" from="-170097526" to="158025178#0"/>
    <trip id="bike127" type="bike_bicycle" depart="570.81" departLane="best" from="935142775" to="956605151#1"/>
    <trip id="bike129" type="bike_bicycle" depart="579.80" departLane="best" from="-4588211#1" to="76611950"/>
    <trip id="bike130" type="bike_bicycle" depart="584.29" departLane="best" departSpeed="max" from="55495482#0" to="589906053#0"/>
    <trip id="bike131" type="bike_bicycle" depart="588.79" departLane="best" from="-77348147" to="-28016312#0"/>
    <trip id="bike132" type="bike_bicycle" depart="593.28" departLane="best" from="461526152#0" to="354528932#1"/>
    <trip id="bike133" type="bike_bicycle" depart="597.78" departLane="best" from="23755950#0" to="915368063"/>
    <trip id="bike134" type="bike_bicycle" depart="602.27" departLane="best" from="26288772#0" to="-111833186#2"/>
    <trip id="bike135" type="bike_bicycle" depart="606.77" departLane="best" from="4611708#0" to="-516398559#1"/>
    <trip id="bike136" type="bike_bicycle" depart="611.26" departLane="best" from="292429062#1" to="78065411#1"/>
    <trip id="bike137" type="bike_bicycle" depart="615.75" departLane="best" from="-22972473#2" to="-202157031#3"/>
    <trip id="bike138" type="bike_bicycle" depart="620.25" departLane="best" from="-195104960#0" to="202156995#1"/>
    <trip id="bike139" type="bike_bicycle" depart="624.74" departLane="best" from="-4597322#4" to="24242882#2"/>
    <trip id="bike140" type="bike_bicycle" depart="629.24" departLane="best" from="34848160#2" to="-35578576#2"/>
    <trip id="bike141" type="bike_bicycle" depart="633.73" departLane="best" from="24243092#0" to="-4610610#2"/>
    <trip id="bike142" type="bike_bicycle" depart="638.23" departLane="best" from="15973619#2" to="68647306#3"/>
    <trip id="bike143" type="bike_bicycle" depart="642.72" departLane="best" from="4773029#1" to="-195088845"/>
    <trip id="bike145" type="bike_bicycle" depart="651.71" departLane="best" from="-105747086" to="4588220#0"/>
    <trip id="bike146" type="bike_bicycle" depart="656.21" departLane="best" from="243854725#4" to="-4610609#1"/>
    <trip id="bike147" type="bike_bicycle" depart="660.70" departLane="best" from="389101374" to="202156994#0"/>
    <trip id="bike148" type="bike_bicycle" depart="665.19" departLane="best" departSpeed="max" from="122820534#0" to="-120675240#3"/>
    <trip id="bike150" type="bike_bicycle" depart="674.18" departLane="best" from="66071366#2" to="195411604"/>
    <trip id="bike151" type="bike_bicycle" depart="678.68" departLane="best" from="465376239" to="23121445#3"/>
    <trip id="bike152" type="bike_bicycle" depart="683.17" departLane="best" from="-23755739#4" to="-23017853"/>
    <trip id="bike153" type="bike_bicycle" depart="687.67" departLane="best" from="-4611714#2" to="67713117#4"/>
    <trip id="bike154" type="bike_bicycle" depart="692.16" departLane="best" from="4610472#2" to="532727925#1"/>
    <trip id="bike155" type="bike_bicycle" depart="696.66" departLane="best" from="6228081" to="-389101365#2"/>
    <trip id="bike156" type="bike_bicycle" depart="701.15" departLane="best" from="-43376477#1" to="-195105328#0"/>
    <trip id="bike157" type="bike_bicycle" depart="705.65" departLane="best" from="4588211#1" to="60333312#1"/>
    <trip id="bike158" type="bike_bicycle" depart="710.14" departLane="best" from="104428005" to="24913304#2"/>
    <trip id="bike159" type="bike_bicycle" depart="714.63" departLane="best" from="-23809670#3" to="76611944#1"/>
    <trip id="bike160" type="bike_bicycle" depart="719.13" departLane="best" departSpeed="max" from="51912365#0" to="894814135#1"/>
    <trip id="bike161" type="bike_bicycle" depart="723.62" departLane="best" from="4611693#2" to="589906055"/>
    <trip id="bike162" type="bike_bicycle" depart="728.12" departLane="best" departSpeed="max" from="-134021303" to="410310755#7"/>
    <trip id="bike163" type="bike_bicycle" depart="732.61" departLane="best" from="-534588621#1" to="76611948#1"/>
    <trip id="bike164" type="bike_bicycle" depart="737.11" departLane="best" from="4610600" to="533509622#2"/>
    <trip id="bike165" type="bike_bicycle" depart="741.60" departLane="best" from="4611693#2" to="-4611693#0"/>
    <trip id="bike166" type="bike_bicycle" depart="746.10" departLane="best" from="4597322#3" to="-195397561#6"/>
    <trip id="bike167" type="bike_bicycle" depart="750.59" departLane="best" from="54048862#0" to="51912365#1"/>
    <trip id="bike168" type="bike_bicycle" depart="755.09" departLane="best" from="-375935041" to="4611712"/>
    <trip id="bike169" type="bike_bicycle" depart="759.58" departLane="best" from="153698387#3" to="-534588621#1"/>
    <trip id="bike170" type="bike_bicycle" depart="764.07" departLane="best" from="4610472#1" to="-43376477#0"/>
    <trip id="bike171" type="bike_bicycle" depart="768.57" departLane="best" from="-133885749#1" to="-339201177#4"/>
    <trip id="bike172" type="bike_bicycle" depart="773.06" departLane="best" from="-516398559#1" to="533509622#3"/>
    <trip id="bike173" type="bike_bicycle" depart="777.56" departLane="best" departSpeed="max" from="836424813" to="-4611713#1"/>
    <trip id="bike174" type="bike_bicycle" depart="782.05" departLane="best" from="24913304#1" to="132600840#0"/>
    <trip id="bike175" type="bike_bicycle" depart="786.55" departLane="best" from="894814133" to="195104956#1"/>
    <trip id="bike176" type="bike_bicycle" depart="791.04" departLane="best" from="755551646#2" to="-202157031#3"/>
    <trip id="bike177" type="bike_bicycle" depart="795.54" departLane="best" from="85255870#0" to="-32508516#0"/>
    <trip id="bike178" type="bike_bicycle" depart="800.03" departLane="best" from="831694400" to="-4610612"/>
    <trip id="bike179" type="bike_bicycle" depart="804.53" departLane="best" from="-195104960#3" to="147066248#6"/>
    <trip id="bike182" type="bike_bicycle" depart="818.01" departLane="best" from="-874528353#0" to="23013165#2"/>
    <trip id="bike183" type="bike_bicycle" depart="822.50" departLane="best" from="-4401967#2" to="35557161#5"/>
    <trip id="bike184" type="bike_bicycle" depart="827.00" departLane="best" departSpeed="max" from="-105742454" to="76212438#2"/>
    <trip id="bike185" type="bike_bicycle" depart="831.49" departLane="best" departSpeed="max" from="194167258#0" to="38345682"/>
    <trip id="bike186" type="bike_bicycle" depart="835.99" departLane="best" from="38912785" to="326116285#3"/>
    <trip id="bike187" type="bike_bicycle" depart="840.48" departLane="best" from="-750204886" to="-188240629#0"/>
    <trip id="bike188" type="bike_bicycle" depart="844.98" departLane="best" from="292429062#2" to="-67713117#3"/>
    <trip id="bike190" type="bike_bicycle" depart="853.97" departLane="best" from="354528932#1" to="-51912365#0"/>
    <trip id="bike192" type="bike_bicycle" depart="862.96" departLane="best" departSpeed="max" from="-974193161" to="-4840977#0"/>
    <trip id="bike193" type="bike_bicycle" depart="867.45" departLane="best" from="-202817674#4" to="136571494#0"/>
    <trip id="bike194" type="bike_bicycle" depart="871.94" departLane="best" from="755551647" to="327941679#2"/>
    <trip id="bike195" type="bike_bicycle" depart="876.44" departLane="best" from="66071366#0" to="243854725#4"/>
    <trip id="bike196" type="bike_bicycle" depart="880.93" departLane="best" from="-4611710#0" to="201685782"/>
    <trip id="bike197" type="bike_bicycle" depart="885.43" departLane="best" from="-10270987" to="-465376254"/>
    <trip id="bike198" type="bike_bicycle" depart="889.92" departLane="best" from="131577612#2" to="23017853"/>
    <trip id="bike199" type="bike_bicycle" depart="894.42" departLane="best" from="26288772#1" to="15973619#2"/>
    <trip id="bike200" type="bike_bicycle" depart="898.91" departLane="best" departSpeed="max" from="133885750#0" to="-409506038#1"/>
    <trip id="bike201" type="bike_bicycle" depart="903.41" departLane="best" from="154041920" to="67713117#7"/>
    <trip id="bike202" type="bike_bicycle" depart="907.90" departLane="best" from="4610472#2" to="-31959087#0"/>
    <trip id="bike203" type="bike_bicycle" depart="912.40" departLane="best" departSpeed="max" from="-194159765#1" to="194167259#0"/>
    <trip id="bike204" type="bike_bicycle" depart="916.89" departLane="best" from="24243056" to="-705182550"/>
    <trip id="bike205" type="bike_bicycle" depart="921.38" departLane="best" from="4611708#2" to="4381079#3"/>
    <trip id="bike206" type="bike_bicycle" depart="925.88" departLane="best" from="30721662#1" to="-43231842#0"/>
    <trip id="bike207" type="bike_bicycle" depart="930.37" departLane="best" from="-327735416" to="-147066248#0"/>
    <trip id="bike208" type="bike_bicycle" depart="934.87" departLane="best" from="-43156728#0" to="168935757#0"/>
    <trip id="bike209" type="bike_bicycle" depart="939.36" departLane="best" from="4773465#3" to="-194159765#0"/>
    <trip id="bike211" type="bike_bicycle" depart="948.35" departLane="best" from="-32508498" to="340498982#4"/>
    <trip id="bike212" type="bike_bicycle" depart="952.85" departLane="best" from="15977422#0" to="-4588219#0"/>
    <trip id="bike213" type="bike_bicycle" depart="957.34" departLane="best" from="27200706#1" to="-111833185#1"/>
    <trip id="bike214" type="bike_bicycle" depart="961.84" departLane="best" from="424415178" to="4588219#1"/>
    <trip id="bike215" type="bike_bicycle" depart="966.33" departLane="best" from="-195104960#0" to="139118202"/>
    <trip id="bike216" type="bike_bicycle" depart="970.82" departLane="best" from="-28251222#0" to="83517336#4"/>
    <trip id="bike217" type="bike_bicycle" depart="975.32" departLane="best" from="188386313#2" to="-15973619#3"/>
    <trip id="bike219" type="bike_bicycle" depart="984.31" departLane="best" from="147066248#8" to="4611693#0"/>
    <trip id="bike221" type="bike_bicycle" depart="993.30" departLane="best" from="22972473#3" to="803471192#1"/>
    <trip id="bike222" type="bike_bicycle" depart="997.79" departLane="best" from="591200194#0" to="24243092#0"/>
    <trip id="bike223" type="bike_bicycle" depart="1002.29" departLane="best" from="354528932#1" to="194073677#4"/>
    <trip id="bike224" type="bike_bicycle" depart="1006.78" departLane="best" from="4611718#0" to="196850609#2"/>
    <trip id="bike225" type="bike_bicycle" depart="1011.28" departLane="best" from="61584187#2" to="43231842#0"/>
    <trip id="bike226" type="bike_bicycle" depart="1015.77" departLane="best" from="154043356" to="-4610524"/>
    <trip id="bike227" type="bike_bicycle" depart="1020.26" departLane="best" from="-43231842#2" to="28016312#1"/>
    <trip id="bike228" type="bike_bicycle" depart="1024.76" departLane="best" from="4402037" to="194177700#2"/>
    <trip id="bike229" type="bike_bicycle" depart="1029.25" departLane="best" from="24242882#3" to="-4611708#4"/>
    <trip id="bike230" type="bike_bicycle" depart="1033.75" departLane="best" from="-171484594#0" to="-4611718#0"/>
    <trip id="bike231" type="bike_bicycle" depart="1038.24" departLane="best" from="-4597322#3" to="-60333312#1"/>
    <trip id="bike232" type="bike_bicycle" depart="1042.74" departLane="best" from="194167258#1" to="-23755961#1"/>
    <trip id="bike233" type="bike_bicycle" depart="1047.23" departLane="best" from="-38912785" to="340498982#0"/>
    <trip id="bike235" type="bike_bicycle" depart="1056.22" departLane="best" from="104581979#0" to="195397561#1"/>
    <trip id="bike236" type="bike_bicycle" depart="1060.72" departLane="best" from="11483007#0" to="-38347139#0"/>
    <trip id="bike238" type="bike_bicycle" depart="1069.70" departLane="best" from="202157031#3" to="340498982#3"/>
    <trip id="bike240" type="bike_bicycle" depart="1078.69" departLane="best" from="-831860725#2" to="-111833186#0"/>
    <trip id="bike241" type="bike_bicycle" depart="1083.19" departLane="best" from="-67713117#3" to="4402014#3"/>
    <trip id="bike244" type="bike_bicycle" depart="1096.67" departLane="best" departSpeed="max" from="194962998#0" to="24242882#0"/>
    <trip id="bike245" type="bike_bicycle" depart="1101.17" departLane="best" from="-35578576#0" to="-410310755#6"/>
    <trip id="bike246" type="bike_bicycle" depart="1105.66" departLane="best" from="133885744#1" to="-147066248#6"/>
    <trip id="bike248" type="bike_bicycle" depart="1114.65" departLane="best" departSpeed="max" from="-98399537" to="-292429062#3"/>
    <trip id="bike249" type="bike_bicycle" depart="1119.15" departLane="best" from="153698402#4" to="-23017853"/>
    <trip id="bike250" type="bike_bicycle" depart="1123.64" departLane="best" from="24240246#2" to="-147066248#3"/>
    <trip id="bike251" type="bike_bicycle" depart="1128.13" departLane="best" from="-92437984#1" to="210668637#0"/>
    <trip id="bike252" type="bike_bicycle" depart="1132.63" departLane="best" from="-136571494#1" to="292429062#0"/>
    <trip id="bike253" type="bike_bicycle" depart="1137.12" departLane="best" from="-22972473#4" to="15973619#11"/>
    <trip id="bike254" type="bike_bicycle" depart="1141.62" departLane="best" from="-158023913#2" to="111833186#1"/>
    <trip id="bike255" type="bike_bicycle" depart="1146.11" departLane="best" from="-339201177#5" to="-66071379#0"/>
    <trip id="bike256" type="bike_bicycle" depart="1150.61" departLane="best" from="437325055#0" to="111833186#2"/>
    <trip id="bike258" type="bike_bicycle" depart="1159.60" departLane="best" from="-437325056#2" to="-194167256#0"/>
    <trip id="bike259" type="bike_bicycle" depart="1164.09" departLane="best" from="-133885742" to="195105328#1"/>
    <trip id="bike260" type="bike_bicycle" depart="1168.59" departLane="best" departSpeed="max" from="956605152#0" to="-803471192#0"/>
    <trip id="bike261" type="bike_bicycle" depart="1173.08" departLane="best" from="25776568#1" to="4597324#4"/>
    <trip id="bike262" type="bike_bicycle" depart="1177.57" departLane="best" from="26288770" to="4402037"/>
    <trip id="bike263" type="bike_bicycle" depart="1182.07" departLane="best" from="78065411#0" to="-35557161#2"/>
    <trip id="bike264" type="bike_bicycle" depart="1186.56" departLane="best" from="-133885743#1" to="-25302636#1"/>
    <trip id="bike265" type="bike_bicycle" depart="1191.06" departLane="best" from="-202817674#2" to="326116285#0"/>
    <trip id="bike266" type="bike_bicycle" depart="1195.55" departLane="best" from="195104960#3" to="-410310755#2"/>
    <trip id="bike267" type="bike_bicycle" depart="1200.05" departLane="best" from="327941679#1" to="4570580#3"/>
    <trip id="bike268" type="bike_bicycle" depart="1204.54" departLane="best" departSpeed="max" from="-25294729#1" to="24242892#1"/>
    <trip id="bike269" type="bike_bicycle" depart="1209.04" departLane="best" from="410310755#4" to="-202157031#2"/>
    <trip id="bike271" type="bike_bicycle" depart="1218.03" departLane="best" from="-195104960#3" to="-147066248#1"/>
    <trip id="bike272" type="bike_bicycle" depart="1222.52" departLane="best" from="-4611714#7" to="327941679#2"/>
    <trip id="bike274" type="bike_bicycle" depart="1231.51" departLane="best" from="340498988#0" to="-194167249"/>
    <trip id="bike275" type="bike_bicycle" depart="1236.00" departLane="best" from="326116285#3" to="25294729#1"/>
    <trip id="bike276" type="bike_bicycle" depart="1240.50" departLane="best" from="-195089288#2" to="4588222#0"/>
    <trip id="bike277" type="bike_bicycle" depart="1244.99" departLane="best" departSpeed="max" from="478396988" to="24240246#1"/>
    <trip id="bike278" type="bike_bicycle" depart="1249.49" departLane="best" from="-202157003#0" to="899946800"/>
    <trip id="bike279" type="bike_bicycle" depart="1253.98" departLane="best" from="4588219#2" to="-780327567"/>
    <trip id="bike280" type="bike_bicycle" depart="1258.48" departLane="best" departSpeed="max" from="122820534#0" to="104567844"/>
    <trip id="bike281" type="bike_bicycle" depart="1262.97" departLane="best" from="169999355#0" to="-753316505#2"/>