<?xml version="1.0" encoding="UTF-8"?>

<!-- generated on 08/22/21 11:42:25 by Eclipse SUMO duarouter Version 1.7.0
<configuration xmlns:xsi="http://www.w3.org/2001/XMLSchema-instance" xsi:noNamespaceSchemaLocation="http://sumo.dlr.de/xsd/duarouterConfiguration.xsd">

    <input>
        <net-file value="d:\Program%20Files%20(x86)\Eclipse\Sumo\tools\2021-08-22-11-42-08\osm.net.xml"/>
        <route-files value="d:\Program%20Files%20(x86)\Eclipse\Sumo\tools\2021-08-22-11-42-08\osm.passenger.trips.xml"/>
    </input>

    <output>
        <output-file value="d:\Program%20Files%20(x86)\Eclipse\Sumo\tools\2021-08-22-11-42-08\osm.passenger.trips.xml.tmp"/>
        <write-trips value="true"/>
    </output>

    <time>
        <begin value="0"/>
        <end value="3600"/>
    </time>

    <report>
        <no-warnings value="true"/>
        <ignore-errors value="true"/>
        <no-step-log value="true"/>
    </report>

</configuration>
-->

<routes xmlns:xsi="http://www.w3.org/2001/XMLSchema-instance" xsi:noNamespaceSchemaLocation="http://sumo.dlr.de/xsd/routes_file.xsd">
    <vType id="veh_passenger" vClass="passenger"/>
    <trip id="veh0" type="veh_passenger" depart="0.00" departLane="best" from="320462164#4" to="-153698380#2"/>
    <trip id="veh1" type="veh_passenger" depart="2.71" departLane="best" from="-4611708#4" to="-4597322#7"/>
    <trip id="veh2" type="veh_passenger" depart="5.42" departLane="best" from="4588219#0" to="35557161#4"/>
    <trip id="veh3" type="veh_passenger" depart="8.13" departLane="best" from="66071370" to="-195411605#0"/>
    <trip id="veh4" type="veh_passenger" depart="10.85" departLane="best" from="154043352#0" to="-153698390#0"/>
    <trip id="veh5" type="veh_passenger" depart="13.56" departLane="best" from="-437325050#1" to="23013165#1"/>
    <trip id="veh6" type="veh_passenger" depart="16.27" departLane="best" from="-147066248#6" to="-4381079#2"/>
    <trip id="veh7" type="veh_passenger" depart="18.98" departLane="best" from="340498976#10" to="24242882#0"/>
    <trip id="veh8" type="veh_passenger" depart="21.69" departLane="best" from="-437325055#2" to="292429056#0"/>
    <trip id="veh9" type="veh_passenger" depart="24.40" departLane="best" from="465376240#0" to="43156537"/>
    <trip id="veh10" type="veh_passenger" depart="27.11" departLane="best" from="-76212441#1" to="-326116286#2"/>
    <trip id="veh11" type="veh_passenger" depart="29.82" departLane="best" from="76611944#1" to="108031933#0"/>
    <trip id="veh12" type="veh_passenger" depart="32.54" departLane="best" from="-202156991#0" to="-22972473#2"/>
    <trip id="veh14" type="veh_passenger" depart="37.96" departLane="best" departSpeed="max" from="465376243#0" to="4570580#0"/>
    <trip id="veh16" type="veh_passenger" depart="43.38" departLane="best" departSpeed="max" from="122820534#0" to="24243052#1"/>
    <trip id="veh17" type="veh_passenger" depart="46.09" departLane="best" from="47935842" to="320420912#1"/>
    <trip id="veh18" type="veh_passenger" depart="48.80" departLane="best" from="54048862#3" to="25294728"/>
    <trip id="veh19" type="veh_passenger" depart="51.52" departLane="best" from="43231842#1" to="-158023913#6"/>
    <trip id="veh20" type="veh_passenger" depart="54.23" departLane="best" from="-4402014#3" to="-60333312#0"/>
    <trip id="veh21" type="veh_passenger" depart="56.94" departLane="best" from="-195104956#0" to="-4610608"/>
    <trip id="veh22" type="veh_passenger" depart="59.65" departLane="best" from="-210668637#0" to="-534588621#0"/>
    <trip id="veh23" type="veh_passenger" depart="62.36" departLane="best" from="320420916#0" to="147066248#1"/>
    <trip id="veh24" type="veh_passenger" depart="65.07" departLane="best" from="114667396#0" to="-4412886#1"/>
    <trip id="veh25" type="veh_passenger" depart="67.78" departLane="best" from="-4611693#4" to="710761407#3"/>
    <trip id="veh26" type="veh_passenger" depart="70.49" departLane="best" from="339201217#1" to="31112516"/>
    <trip id="veh28" type="veh_passenger" depart="75.92" departLane="best" from="-292429056#2" to="153698413"/>
    <trip id="veh30" type="veh_passenger" depart="81.34" departLane="best" from="24234486" to="35578576#2"/>
    <trip id="veh31" type="veh_passenger" depart="84.05" departLane="best" from="530085625#0" to="4611696#1"/>
    <trip id="veh32" type="veh_passenger" depart="86.76" departLane="best" from="-4402228" to="-153698391"/>
    <trip id="veh33" type="veh_passenger" depart="89.47" departLane="best" from="-66071366#4" to="-492340367#0"/>
    <trip id="veh34" type="veh_passenger" depart="92.19" departLane="best" from="-43156728#4" to="72157174#1"/>
    <trip id="veh35" type="veh_passenger" depart="94.90" departLane="best" departSpeed="max" from="60333312#0" to="-710761407#0"/>
    <trip id="veh36" type="veh_passenger" depart="97.61" departLane="best" from="340498982#2" to="158023913#2"/>
    <trip id="veh37" type="veh_passenger" depart="100.32" departLane="best" departSpeed="max" from="67713451#0" to="195091665#2"/>
    <trip id="veh38" type="veh_passenger" depart="103.03" departLane="best" from="-4611693#0" to="-4611708#2"/>
    <trip id="veh39" type="veh_passenger" depart="105.74" departLane="best" from="24240246#2" to="-465376254"/>
    <trip id="veh40" type="veh_passenger" depart="108.45" departLane="best" from="24913267#3" to="61584187#1"/>
    <trip id="veh41" type="veh_passenger" depart="111.16" departLane="best" from="153698390#1" to="-4597320#1"/>
    <trip id="veh42" type="veh_passenger" depart="113.88" departLane="best" from="930343901#2" to="23017852#2"/>
    <trip id="veh43" type="veh_passenger" depart="116.59" departLane="best" from="-195397561#6" to="-15973619#1"/>
    <trip id="veh44" type="veh_passenger" depart="119.30" departLane="best" from="-22972473#5" to="326116285#0"/>
    <trip id="veh45" type="veh_passenger" depart="122.01" departLane="best" from="4611718#1" to="168935757#0"/>
    <trip id="veh46" type="veh_passenger" depart="124.72" departLane="best" departSpeed="max" from="-168935757#2" to="153698415#2"/>
    <trip id="veh47" type="veh_passenger" depart="127.43" departLane="best" from="894814132" to="23755950#0"/>
    <trip id="veh48" type="veh_passenger" depart="130.14" departLane="best" departSpeed="max" from="78298215#0" to="527714921#0"/>
    <trip id="veh49" type="veh_passenger" depart="132.86" departLane="best" from="-120675240#2" to="4403526#3"/>
    <trip id="veh50" type="veh_passenger" depart="135.57" departLane="best" from="35578576#2" to="23809670#3"/>
    <trip id="veh52" type="veh_passenger" depart="140.99" departLane="best" from="-23017852#1" to="169195795#6"/>
    <trip id="veh53" type="veh_passenger" depart="143.70" departLane="best" from="169195795#5" to="76212438#2"/>
    <trip id="veh54" type="veh_passenger" depart="146.41" departLane="best" departSpeed="max" from="60333312#0" to="-474362271"/>
    <trip id="veh55" type="veh_passenger" depart="149.12" departLane="best" from="196850609#0" to="-387892378"/>
    <trip id="veh56" type="veh_passenger" depart="151.83" departLane="best" departSpeed="max" from="67713451#0" to="532727925#2"/>
    <trip id="veh58" type="veh_passenger" depart="157.26" departLane="best" from="292429062#3" to="-320462164#2"/>
    <trip id="veh59" type="veh_passenger" depart="159.97" departLane="best" from="4610610#1" to="24240245#1"/>
    <trip id="veh60" type="veh_passenger" depart="162.68" departLane="best" from="-105352753" to="-831860725#2"/>
    <trip id="veh61" type="veh_passenger" depart="165.39" departLane="best" departSpeed="max" from="-136571494#3" to="710761407#0"/>
    <trip id="veh62" type="veh_passenger" depart="168.10" departLane="best" departSpeed="max" from="60333312#0" to="4773463#2"/>
    <trip id="veh63" type="veh_passenger" depart="170.81" departLane="best" from="-533509622#3" to="-15977422#0"/>
    <trip id="veh64" type="veh_passenger" depart="173.53" departLane="best" departSpeed="max" from="60333312#0" to="751602168"/>
    <trip id="veh65" type="veh_passenger" depart="176.24" departLane="best" from="-195105328#1" to="202157002#2"/>
    <trip id="veh66" type="veh_passenger" depart="178.95" departLane="best" from="-169999355#2" to="4610472#2"/>
    <trip id="veh67" type="veh_passenger" depart="181.66" departLane="best" from="4611693#0" to="-24913267#2"/>
    <trip id="veh68" type="veh_passenger" depart="184.37" departLane="best" departSpeed="max" from="171826985#0" to="24242892#1"/>
    <trip id="veh69" type="veh_passenger" depart="187.08" departLane="best" from="-4611693#0" to="532727925#2"/>
    <trip id="veh70" type="veh_passenger" depart="189.79" departLane="best" from="156364556#1" to="-4570580#2"/>
    <trip id="veh71" type="veh_passenger" depart="192.50" departLane="best" from="23121445#5" to="4570580#0"/>
    <trip id="veh72" type="veh_passenger" depart="195.22" departLane="best" from="-35578576#1" to="-67713117#7"/>
    <trip id="veh73" type="veh_passenger" depart="197.93" departLane="best" from="894814132" to="340498976#3"/>
    <trip id="veh75" type="veh_passenger" depart="203.35" departLane="best" departSpeed="max" from="-234463931#1" to="-4597324#2"/>
    <trip id="veh76" type="veh_passenger" depart="206.06" departLane="best" from="-755551646#0" to="28251222#1"/>
    <trip id="veh77" type="veh_passenger" depart="208.77" departLane="best" from="-4403526#1" to="-4597322#1"/>
    <trip id="veh78" type="veh_passenger" depart="211.48" departLane="best" from="-172080041#1" to="327518240#1"/>
    <trip id="veh79" type="veh_passenger" depart="214.20" departLane="best" from="-4402037" to="66071366#2"/>
    <trip id="veh80" type="veh_passenger" depart="216.91" departLane="best" from="54048862#1" to="-195091665#0"/>
    <trip id="veh81" type="veh_passenger" depart="219.62" departLane="best" from="-4588217" to="34848160#2"/>
    <trip id="veh82" type="veh_passenger" depart="222.33" departLane="best" from="-43231842#2" to="-25945966"/>
    <trip id="veh83" type="veh_passenger" depart="225.04" departLane="best" departSpeed="max" from="750204886" to="24913304#3"/>
    <trip id="veh84" type="veh_passenger" depart="227.75" departLane="best" departSpeed="max" from="171826985#0" to="4611708#2"/>
    <trip id="veh85" type="veh_passenger" depart="230.46" departLane="best" departSpeed="max" from="465376243#0" to="-43231842#2"/>
    <trip id="veh86" type="veh_passenger" depart="233.17" departLane="best" from="-202817674#3" to="169195795#4"/>
    <trip id="veh87" type="veh_passenger" depart="235.89" departLane="best" from="156364556#1" to="195397561#1"/>
    <trip id="veh89" type="veh_passenger" depart="241.31" departLane="best" from="83517336#4" to="-22972473#5"/>
    <trip id="veh90" type="veh_passenger" depart="244.02" departLane="best" departSpeed="max" from="153698391" to="109902441#1"/>
    <trip id="veh91" type="veh_passenger" depart="246.73" departLane="best" from="54048862#3" to="-4611710#0"/>
    <trip id="veh92" type="veh_passenger" depart="249.44" departLane="best" from="-35557143#4" to="188386313#2"/>
    <trip id="veh93" type="veh_passenger" depart="252.15" departLane="best" from="154043352#0" to="-534588621#0"/>
    <trip id="veh94" type="veh_passenger" depart="254.87" departLane="best" departSpeed="max" from="-4597324#4" to="68647306#4"/>
    <trip id="veh95" type="veh_passenger" depart="257.58" departLane="best" from="164039095#0" to="530085625#0"/>
    <trip id="veh96" type="veh_passenger" depart="260.29" departLane="best" from="23755950#2" to="-15973619#14"/>
    <trip id="veh97" type="veh_passenger" depart="263.00" departLane="best" from="930343902" to="4773463#2"/>
    <trip id="veh98" type="veh_passenger" depart="265.71" departLane="best" departSpeed="max" from="78298215#0" to="68711084#0"/>
    <trip id="veh99" type="veh_passenger" depart="268.42" departLane="best" from="533509622#2" to="-34848160#1"/>
    <trip id="veh100" type="veh_passenger" depart="271.13" departLane="best" from="194069450#0" to="-4588211#1"/>
    <trip id="veh101" type="veh_passenger" depart="273.84" departLane="best" departSpeed="max" from="153698391" to="-164039095#0"/>
    <trip id="veh102" type="veh_passenger" depart="276.56" departLane="best" from="-4611693#0" to="4611708#1"/>
    <trip id="veh103" type="veh_passenger" depart="279.27" departLane="best" from="169195795#6" to="168935757#0"/>
    <trip id="veh104" type="veh_passenger" depart="281.98" departLane="best" from="76611944#1" to="894814132"/>
    <trip id="veh105" type="veh_passenger" depart="284.69" departLane="best" from="23809670#3" to="4402037"/>
    <trip id="veh106" type="veh_passenger" depart="287.40" departLane="best" departSpeed="max" from="-25294729#1" to="-66071370"/>
    <trip id="veh107" type="veh_passenger" depart="290.11" departLane="best" departSpeed="max" from="78298215#0" to="25294729#1"/>
    <trip id="veh108" type="veh_passenger" depart="292.82" departLane="best" from="236092221#0" to="4597324#4"/>
    <trip id="veh109" type="veh_passenger" depart="295.54" departLane="best" departSpeed="max" from="-164039095#1" to="28016312#0"/>
    <trip id="veh110" type="veh_passenger" depart="298.25" departLane="best" from="196850609#2" to="48859718#0"/>
    <trip id="veh111" type="veh_passenger" depart="300.96" departLane="best" departSpeed="max" from="-25294729#1" to="76212441#1"/>
    <trip id="veh112" type="veh_passenger" depart="303.67" departLane="best" from="-195104956#0" to="-43156728#0"/>
    <trip id="veh113" type="veh_passenger" depart="306.38" departLane="best" from="25294728" to="35557161#2"/>
    <trip id="veh114" type="veh_passenger" depart="309.09" departLane="best" from="-4570580#2" to="-23809670#3"/>
    <trip id="veh115" type="veh_passenger" depart="311.80" departLane="best" from="251884680" to="320420913#0"/>
    <trip id="veh116" type="veh_passenger" depart="314.51" departLane="best" from="222328410" to="710761407#3"/>
    <trip id="veh117" type="veh_passenger" depart="317.23" departLane="best" from="-38912785" to="4402014#0"/>
    <trip id="veh118" type="veh_passenger" depart="319.94" departLane="best" from="-4588217" to="158023913#2"/>
    <trip id="veh119" type="veh_passenger" depart="322.65" departLane="best" from="354528932#1" to="-67713117#1"/>
    <trip id="veh120" type="veh_passenger" depart="325.36" departLane="best" from="-66071366#4" to="4597324#4"/>
    <trip id="veh121" type="veh_passenger" depart="328.07" departLane="best" from="-176273730#2" to="195091665#2"/>
    <trip id="veh122" type="veh_passenger" depart="330.78" departLane="best" from="930343901#4" to="894814132"/>
    <trip id="veh123" type="veh_passenger" depart="333.49" departLane="best" from="-188240629#0" to="-4570580#3"/>
    <trip id="veh124" type="veh_passenger" depart="336.21" departLane="best" from="-4611693#0" to="710761407#3"/>
    <trip id="veh125" type="veh_passenger" depart="338.92" departLane="best" from="60333312#3" to="533509622#3"/>
    <trip id="veh128" type="veh_passenger" depart="347.05" departLane="best" from="4773029#1" to="-67713117#1"/>
    <trip id="veh129" type="veh_passenger" depart="349.76" departLane="best" from="340498982#9" to="72157174#1"/>
    <trip id="veh130" type="veh_passenger" depart="352.47" departLane="best" from="-23809670#3" to="-23755961#0"/>
    <trip id="veh131" type="veh_passenger" depart="355.18" departLane="best" from="-22972473#2" to="24243052#3"/>
    <trip id="veh132" type="veh_passenger" depart="357.90" departLane="best" from="-4611708#1" to="305153174"/>
    <trip id="veh133" type="veh_passenger" depart="360.61" departLane="best" from="320420913#0" to="-474362271"/>
    <trip id="veh134" type="veh_passenger" depart="363.32" departLane="best" departSpeed="max" from="195091665#0" to="66071366#2"/>
    <trip id="veh136" type="veh_passenger" depart="368.74" departLane="best" from="156364556#1" to="-534588621#0"/>
    <trip id="veh137" type="veh_passenger" depart="371.45" departLane="best" departSpeed="max" from="-109902441#1" to="4610610#3"/>
    <trip id="veh138" type="veh_passenger" depart="374.16" departLane="best" from="320462163#1" to="-4611718#1"/>
    <trip id="veh139" type="veh_passenger" depart="376.88" departLane="best" from="4588222#1" to="24243052#1"/>
    <trip id="veh140" type="veh_passenger" depart="379.59" departLane="best" from="-194069450#2" to="54048862#1"/>
    <trip id="veh141" type="veh_passenger" depart="382.30" departLane="best" from="67713117#4" to="24242882#0"/>
    <trip id="veh142" type="veh_passenger" depart="385.01" departLane="best" from="48859715#1" to="25302636#1"/>
    <trip id="veh143" type="veh_passenger" depart="387.72" departLane="best" from="-24997595#0" to="-24509317#1"/>
    <trip id="veh144" type="veh_passenger" depart="390.43" departLane="best" from="-534588621#1" to="61584187#2"/>
    <trip id="veh146" type="veh_passenger" depart="395.86" departLane="best" departSpeed="max" from="67713117#0" to="-4570580#0"/>
    <trip id="veh147" type="veh_passenger" depart="398.57" departLane="best" departSpeed="max" from="-4597324#4" to="-23017853"/>
    <trip id="veh148" type="veh_passenger" depart="401.28" departLane="best" from="4611710#1" to="54048862#3"/>
    <trip id="veh149" type="veh_passenger" depart="403.99" departLane="best" from="153698394#1" to="320420913#0"/>
    <trip id="veh150" type="veh_passenger" depart="406.70" departLane="best" departSpeed="max" from="-25294729#1" to="710761407#0"/>
    <trip id="veh152" type="veh_passenger" depart="412.12" departLane="best" from="465376243#1" to="54048862#0"/>
    <trip id="veh153" type="veh_passenger" depart="414.83" departLane="best" from="-147066248#1" to="4588219#2"/>
    <trip id="veh155" type="veh_passenger" depart="420.26" departLane="best" from="465376243#1" to="-47935842"/>
    <trip id="veh156" type="veh_passenger" depart="422.97" departLane="best" from="4611714#3" to="-23121445#5"/>
    <trip id="veh157" type="veh_passenger" depart="425.68" departLane="best" departSpeed="max" from="55495482#0" to="492340367#1"/>
    <trip id="veh158" type="veh_passenger" depart="428.39" departLane="best" from="-4381079#2" to="47707170#6"/>
    <trip id="veh159" type="veh_passenger" depart="431.10" departLane="best" from="169660686#1" to="-67713117#1"/>
    <trip id="veh161" type="veh_passenger" depart="436.53" departLane="best" from="-137630045" to="-437325046#0"/>
    <trip id="veh162" type="veh_passenger" depart="439.24" departLane="best" from="-710761407#0" to="532727925#1"/>
    <trip id="veh164" type="veh_passenger" depart="444.66" departLane="best" from="326116285#2" to="15973619#10"/>
    <trip id="veh165" type="veh_passenger" depart="447.37" departLane="best" from="753316506" to="-23755961#0"/>
    <trip id="veh166" type="veh_passenger" depart="450.08" departLane="best" departSpeed="max" from="78298215#0" to="-387892378"/>
    <trip id="veh167" type="veh_passenger" depart="452.79" departLane="best" from="77348147" to="-4773029#1"/>
    <trip id="veh168" type="veh_passenger" depart="455.50" departLane="best" from="-22972473#4" to="169195795#6"/>
    <trip id="veh170" type="veh_passenger" depart="460.93" departLane="best" from="292429062#0" to="23017853"/>
    <trip id="veh171" type="veh_passenger" depart="463.64" departLane="best" from="136571494#1" to="251884680"/>
    <trip id="veh172" type="veh_passenger" depart="466.35" departLane="best" from="-4597325#1" to="437325050#1"/>
    <trip id="veh173" type="veh_passenger" depart="469.06" departLane="best" from="-108031933#1" to="68647306#6"/>
    <trip id="veh174" type="veh_passenger" depart="471.77" departLane="best" from="23121445#4" to="4402228"/>
    <trip id="veh175" type="veh_passenger" depart="474.48" departLane="best" from="4592739" to="354528932#0"/>
    <trip id="veh176" type="veh_passenger" depart="477.20" departLane="best" from="340498982#9" to="-85255870#2"/>
    <trip id="veh177" type="veh_passenger" depart="479.91" departLane="best" from="-66071366#1" to="48859718#0"/>
    <trip id="veh178" type="veh_passenger" depart="482.62" departLane="best" from="4402014#3" to="-67713117#1"/>
    <trip id="veh179" type="veh_passenger" depart="485.33" departLane="best" from="-534588621#1" to="15973619#3"/>
    <trip id="veh180" type="veh_passenger" depart="488.04" departLane="best" departSpeed="max" from="153698391" to="-66071366#4"/>
    <trip id="veh181" type="veh_passenger" depart="490.75" departLane="best" from="-23755950#0" to="168935757#0"/>
    <trip id="veh182" type="veh_passenger" depart="493.46" departLane="best" departSpeed="max" from="753730627#0" to="35557161#5"/>
    <trip id="veh183" type="veh_passenger" depart="496.17" departLane="best" from="67713117#3" to="320420912#0"/>
    <trip id="veh184" type="veh_passenger" depart="498.89" departLane="best" from="158023913#4" to="25294729#1"/>
    <trip id="veh185" type="veh_passenger" depart="501.60" departLane="best" from="340498982#0" to="195397541#1"/>
    <trip id="veh186" type="veh_passenger" depart="504.31" departLane="best" from="15977422#0" to="-4588211#1"/>
    <trip id="veh187" type="veh_passenger" depart="507.02" departLane="best" departSpeed="max" from="171826985#0" to="61584187#3"/>
    <trip id="veh189" type="veh_passenger" depart="512.44" departLane="best" from="-195105328#0" to="23121445#4"/>
    <trip id="veh190" type="veh_passenger" depart="515.15" departLane="best" from="320420913#0" to="-930343901#3"/>
    <trip id="veh192" type="veh_passenger" depart="520.58" departLane="best" from="35557143#1" to="-4597324#2"/>
    <trip id="veh193" type="veh_passenger" depart="523.29" departLane="best" departSpeed="max" from="-35557161#6" to="-153698380#2"/>
    <trip id="veh194" type="veh_passenger" depart="526.00" departLane="best" from="-4597322#4" to="202156991#2"/>
    <trip id="veh195" type="veh_passenger" depart="528.71" departLane="best" from="533509622#3" to="-195091665#0"/>
    <trip id="veh196" type="veh_passenger" depart="531.42" departLane="best" from="153698415#2" to="326116285#3"/>
    <trip id="veh197" type="veh_passenger" depart="534.13" departLane="best" from="-35557161#4" to="424415180"/>
    <trip id="veh198" type="veh_passenger" depart="536.84" departLane="best" from="195105328#1" to="-4611706#1"/>
    <trip id="veh199" type="veh_passenger" depart="539.56" departLane="best" from="340498982#2" to="-111833185#0"/>
    <trip id="veh200" type="veh_passenger" depart="542.27" departLane="best" from="4597325#1" to="4610610#2"/>
    <trip id="veh201" type="veh_passenger" depart="544.98" departLane="best" departSpeed="max" from="-22972470#1" to="168937986#3"/>
    <trip id="veh202" type="veh_passenger" depart="547.69" departLane="best" from="-320462163#3" to="76212438#3"/>
    <trip id="veh203" type="veh_passenger" depart="550.40" departLane="best" from="202817674#5" to="-15973619#14"/>
    <trip id="veh204" type="veh_passenger" depart="553.11" departLane="best" from="-4597324#3" to="48859718#0"/>
    <trip id="veh205" type="veh_passenger" depart="555.82" departLane="best" from="169195795#7" to="4611714#6"/>
    <trip id="veh206" type="veh_passenger" depart="558.54" departLane="best" from="342968607#1" to="85255869#0"/>
    <trip id="veh207" type="veh_passenger" depart="561.25" departLane="best" from="25294728" to="755551646#1"/>
    <trip id="veh208" type="veh_passenger" depart="563.96" departLane="best" from="66071366#3" to="31313667#1"/>
    <trip id="veh209" type="veh_passenger" depart="566.67" departLane="best" from="4402014#3" to="22972473#5"/>
    <trip id="veh211" type="veh_passenger" depart="572.09" departLane="best" departSpeed="max" from="67713117#0" to="4597322#4"/>
    <trip id="veh212" type="veh_passenger" depart="574.80" departLane="best" departSpeed="max" from="171826985#0" to="-4611714#5"/>
    <trip id="veh214" type="veh_passenger" depart="580.23" departLane="best" from="4611693#0" to="234463931#1"/>
    <trip id="veh215" type="veh_passenger" depart="582.94" departLane="best" from="31313667#2" to="-534588621#0"/>
    <trip id="veh216" type="veh_passenger" depart="585.65" departLane="best" departSpeed="max" from="-195091665#2" to="-55495482#1"/>
    <trip id="veh217" type="veh_passenger" depart="588.36" departLane="best" from="-4611708#0" to="-76212441#1"/>
    <trip id="veh219" type="veh_passenger" depart="593.78" departLane="best" from="-4403526#3" to="424323348"/>
    <trip id="veh220" type="veh_passenger" depart="596.49" departLane="best" from="43231842#3" to="-171484594#0"/>
    <trip id="veh221" type="veh_passenger" depart="599.21" departLane="best" from="153698394#2" to="24240246#2"/>
    <trip id="veh222" type="veh_passenger" depart="601.92" departLane="best" from="154041909" to="-4403526#1"/>
    <trip id="veh223" type="veh_passenger" depart="604.63" departLane="best" from="154041920" to="66071366#1"/>
    <trip id="veh225" type="veh_passenger" depart="610.05" departLane="best" from="534588621#1" to="4610480"/>
    <trip id="veh226" type="veh_passenger" depart="612.76" departLane="best" from="131577612#2" to="-111833185#0"/>
    <trip id="veh227" type="veh_passenger" depart="615.47" departLane="best" from="-874528353#1" to="4597325#1"/>
    <trip id="veh228" type="veh_passenger" depart="618.18" departLane="best" departSpeed="max" from="534588621#0" to="76212438#2"/>
    <trip id="veh229" type="veh_passenger" depart="620.90" departLane="best" from="154041918#1" to="4597324#3"/>
    <trip id="veh231" type="veh_passenger" depart="626.32" departLane="best" from="-437325056#2" to="-4597320#1"/>
    <trip id="veh232" type="veh_passenger" depart="629.03" departLane="best" from="15973619#2" to="-153698387#1"/>
    <trip id="veh233" type="veh_passenger" depart="631.74" departLane="best" departSpeed="max" from="-710761407#5" to="35557161#6"/>
    <trip id="veh234" type="veh_passenger" depart="634.45" departLane="best" departSpeed="max" from="153698391" to="-339201185"/>
    <trip id="veh235" type="veh_passenger" depart="637.16" departLane="best" departSpeed="max" from="171826985#0" to="-24509317#1"/>
    <trip id="veh236" type="veh_passenger" depart="639.88" departLane="best" departSpeed="max" from="30721662#0" to="-153698387#1"/>
    <trip id="veh237" type="veh_passenger" depart="642.59" departLane="best" departSpeed="max" from="153698387#0" to="24913267#0"/>
    <trip id="veh239" type="veh_passenger" depart="648.01" departLane="best" from="-24242882#1" to="195104960#3"/>
    <trip id="veh240" type="veh_passenger" depart="650.72" departLane="best" from="-15973619#4" to="153698413"/>
    <trip id="veh241" type="veh_passenger" depart="653.43" departLane="best" from="-43156728#4" to="-840229277"/>
    <trip id="veh242" type="veh_passenger" depart="656.14" departLane="best" from="4610610#0" to="153698413"/>
    <trip id="veh243" type="veh_passenger" depart="658.85" departLane="best" from="4610472#0" to="4773463#2"/>
    <trip id="veh244" type="veh_passenger" depart="661.57" departLane="best" departSpeed="max" from="-4597324#4" to="-195397541#1"/>
    <trip id="veh245" type="veh_passenger" depart="664.28" departLane="best" departSpeed="max" from="-136571494#3" to="24240245#1"/>
    <trip id="veh246" type="veh_passenger" depart="666.99" departLane="best" from="930343902" to="120675240#3"/>
    <trip id="veh247" type="veh_passenger" depart="669.70" departLane="best" from="340498976#2" to="4611706#0"/>
    <trip id="veh248" type="veh_passenger" depart="672.41" departLane="best" from="340498976#6" to="4597325#2"/>
    <trip id="veh249" type="veh_passenger" depart="675.12" departLane="best" departSpeed="max" from="753730627#0" to="-4381079#3"/>
    <trip id="veh250" type="veh_passenger" depart="677.83" departLane="best" departSpeed="max" from="-136571494#3" to="-320462164#2"/>
    <trip id="veh251" type="veh_passenger" depart="680.55" departLane="best" from="-23755739#4" to="34848160#3"/>
    <trip id="veh252" type="veh_passenger" depart="683.26" departLane="best" from="24242882#0" to="-4592739"/>
    <trip id="veh255" type="veh_passenger" depart="691.39" departLane="best" from="4597324#2" to="-23755950#4"/>
    <trip id="veh257" type="veh_passenger" depart="696.81" departLane="best" from="-22972473#3" to="-153698387#1"/>
    <trip id="veh258" type="veh_passenger" depart="699.52" departLane="best" from="-6228081" to="35557161#5"/>
    <trip id="veh260" type="veh_passenger" depart="704.95" departLane="best" from="4381079#2" to="-195104960#0"/>
    <trip id="veh261" type="veh_passenger" depart="707.66" departLane="best" from="38208961" to="326116285#0"/>
    <trip id="veh262" type="veh_passenger" depart="710.37" departLane="best" from="-222328410" to="4611693#0"/>
    <trip id="veh264" type="veh_passenger" depart="715.79" departLane="best" departSpeed="max" from="-234463931#1" to="83517336#0"/>
    <trip id="veh265" type="veh_passenger" depart="718.50" departLane="best" from="4611711#1" to="11483007#0"/>
    <trip id="veh266" type="veh_passenger" depart="721.22" departLane="best" from="158023913#2" to="153698387#3"/>
    <trip id="veh267" type="veh_passenger" depart="723.93" departLane="best" from="202156994#0" to="109902441#1"/>
    <trip id="veh268" type="veh_passenger" depart="726.64" departLane="best" from="533509622#3" to="4773029#1"/>
    <trip id="veh269" type="veh_passenger" depart="729.35" departLane="best" departSpeed="max" from="-22972470#1" to="76212441#1"/>
    <trip id="veh270" type="veh_passenger" depart="732.06" departLane="best" from="320420916#0" to="4773463#2"/>
    <trip id="veh271" type="veh_passenger" depart="734.77" departLane="best" from="43376477#0" to="169195795#6"/>
    <trip id="veh273" type="veh_passenger" depart="740.19" departLane="best" from="23121445#3" to="202157002#1"/>
    <trip id="veh274" type="veh_passenger" depart="742.91" departLane="best" from="15973619#14" to="4570580#2"/>