<?xml version="1.0" encoding="UTF-8"?>

<!-- generated on 08/22/21 11:42:28 by Eclipse SUMO duarouter Version 1.7.0
<configuration xmlns:xsi="http://www.w3.org/2001/XMLSchema-instance" xsi:noNamespaceSchemaLocation="http://sumo.dlr.de/xsd/duarouterConfiguration.xsd">

    <input>
        <net-file value="d:\Program%20Files%20(x86)\Eclipse\Sumo\tools\2021-08-22-11-42-08\osm.net.xml"/>
        <route-files value="d:\Program%20Files%20(x86)\Eclipse\Sumo\tools\2021-08-22-11-42-08\osm.truck.trips.xml"/>
    </input>

    <output>
        <output-file value="d:\Program%20Files%20(x86)\Eclipse\Sumo\tools\2021-08-22-11-42-08\osm.truck.trips.xml.tmp"/>
        <write-trips value="true"/>
    </output>

    <time>
        <begin value="0"/>
        <end value="3600"/>
    </time>

    <report>
        <no-warnings value="true"/>
        <ignore-errors value="true"/>
        <no-step-log value="true"/>
    </report>

</configuration>
-->

<routes xmlns:xsi="http://www.w3.org/2001/XMLSchema-instance" xsi:noNamespaceSchemaLocation="http://sumo.dlr.de/xsd/routes_file.xsd">
    <vType id="truck_truck" vClass="truck"/>
    <trip id="truck0" type="truck_truck" depart="0.00" departLane="best" from="-4597322#6" to="-4403526#1"/>
    <trip id="truck1" type="truck_truck" depart="4.07" departLane="best" from="4403559#0" to="340498982#8"/>
    <trip id="truck2" type="truck_truck" depart="8.13" departLane="best" from="132600840#1" to="-147066248#7"/>
    <trip id="truck3" type="truck_truck" depart="12.20" departLane="best" from="-137630045" to="-387892378"/>
    <trip id="truck4" type="truck_truck" depart="16.27" departLane="best" from="-35557161#4" to="24243092#1"/>
    <trip id="truck5" type="truck_truck" depart="20.34" departLane="best" from="4611714#4" to="-111833185#0"/>
    <trip id="truck6" type="truck_truck" depart="24.40" departLane="best" from="4611714#0" to="35578576#0"/>
    <trip id="truck7" type="truck_truck" depart="28.47" departLane="best" from="755551646#2" to="-67713117#7"/>
    <trip id="truck9" type="truck_truck" depart="36.60" departLane="best" from="4611714#2" to="4401967#0"/>
    <trip id="truck10" type="truck_truck" depart="40.67" departLane="best" from="196850609#0" to="77348147"/>
    <trip id="truck11" type="truck_truck" depart="44.74" departLane="best" from="527714921#0" to="24242882#1"/>
    <trip id="truck12" type="truck_truck" depart="48.80" departLane="best" departSpeed="max" from="36259518" to="-156364570#0"/>
    <trip id="truck13" type="truck_truck" depart="52.87" departLane="best" from="-35578576#1" to="-4773029#0"/>
    <trip id="truck14" type="truck_truck" depart="56.94" departLane="best" from="-169660686#0" to="-4588219#0"/>
    <trip id="truck15" type="truck_truck" depart="61.01" departLane="best" from="-195397541#1" to="-4611714#0"/>
    <trip id="truck16" type="truck_truck" depart="65.07" departLane="best" from="292429062#2" to="109902441#1"/>
    <trip id="truck17" type="truck_truck" depart="69.14" departLane="best" departSpeed="max" from="-710761407#5" to="-43231842#3"/>
    <trip id="truck18" type="truck_truck" depart="73.21" departLane="best" from="-24997595#0" to="4381079#3"/>
    <trip id="truck19" type="truck_truck" depart="77.27" departLane="best" departSpeed="max" from="-24243101" to="131577613#1"/>
    <trip id="truck20" type="truck_truck" depart="81.34" departLane="best" from="85255870#0" to="31313667#1"/>
    <trip id="truck21" type="truck_truck" depart="85.41" departLane="best" departSpeed="max" from="478396988" to="4597326"/>
    <trip id="truck22" type="truck_truck" depart="89.47" departLane="best" from="54048863" to="-60333312#0"/>
    <trip id="truck23" type="truck_truck" depart="93.54" departLane="best" from="320420912#1" to="147066248#5"/>
    <trip id="truck24" type="truck_truck" depart="97.61" departLane="best" from="67713117#3" to="168937986#3"/>
    <trip id="truck25" type="truck_truck" depart="101.68" departLane="best" from="-4588211#1" to="-4597325#1"/>
    <trip id="truck26" type="truck_truck" depart="105.74" departLane="best" from="930343901#3" to="202156991#2"/>
    <trip id="truck27" type="truck_truck" depart="109.81" departLane="best" departSpeed="max" from="-195091665#2" to="-156364570#1"/>
    <trip id="truck29" type="truck_truck" depart="117.94" departLane="best" from="-15973619#9" to="132600840#1"/>
    <trip id="truck30" type="truck_truck" depart="122.01" departLane="best" from="894814132" to="22972470#1"/>
    <trip id="truck32" type="truck_truck" depart="130.14" departLane="best" from="-4588219#0" to="31313667#2"/>
    <trip id="truck33" type="truck_truck" depart="134.21" departLane="best" departSpeed="max" from="-202156991#2" to="15973619#15"/>
    <trip id="truck34" type="truck_truck" depart="138.28" departLane="best" from="153698402#4" to="76212438#2"/>
    <trip id="truck35" type="truck_truck" depart="142.35" departLane="best" from="171423001#0" to="-339201185"/>
    <trip id="truck36" type="truck_truck" depart="146.41" departLane="best" departSpeed="max" from="67713117#0" to="48859718#0"/>
    <trip id="truck37" type="truck_truck" depart="150.48" departLane="best" from="-4611693#1" to="31112516"/>
    <trip id="truck38" type="truck_truck" depart="154.55" departLane="best" from="4597322#7" to="23013165#2"/>
    <trip id="truck39" type="truck_truck" depart="158.61" departLane="best" from="4610607" to="22972470#1"/>
    <trip id="truck40" type="truck_truck" depart="162.68" departLane="best" from="-105352753" to="-66071373#3"/>
    <trip id="truck41" type="truck_truck" depart="166.75" departLane="best" from="-136571494#1" to="68647306#5"/>
    <trip id="truck42" type="truck_truck" depart="170.81" departLane="best" from="541763975" to="4611714#8"/>
    <trip id="truck43" type="truck_truck" depart="174.88" departLane="best" departSpeed="max" from="-164039095#1" to="4597322#4"/>
    <trip id="truck44" type="truck_truck" depart="178.95" departLane="best" from="4597324#3" to="-23755950#1"/>
    <trip id="truck45" type="truck_truck" depart="183.02" departLane="best" from="-4588211#1" to="48859718#0"/>
    <trip id="truck46" type="truck_truck" depart="187.08" departLane="best" from="202156991#0" to="4401967#0"/>
    <trip id="truck47" type="truck_truck" depart="191.15" departLane="best" from="-320462164#0" to="-60333312#0"/>
    <trip id="truck48" type="truck_truck" depart="195.22" departLane="best" departSpeed="max" from="153698387#0" to="202157002#2"/>
    <trip id="truck49" type="truck_truck" depart="199.28" departLane="best" departSpeed="max" from="-22972470#1" to="-4403526#3"/>
    <trip id="truck50" type="truck_truck" depart="203.35" departLane="best" departSpeed="max" from="-168935757#2" to="305153174"/>
    <trip id="truck51" type="truck_truck" depart="207.42" departLane="best" from="-35578576#2" to="61584187#2"/>
    <trip id="truck52" type="truck_truck" depart="211.48" departLane="best" departSpeed="max" from="-43156537" to="340498976#6"/>
    <trip id="truck53" type="truck_truck" depart="215.55" departLane="best" from="-34848160#2" to="-23755961#2"/>
    <trip id="truck54" type="truck_truck" depart="219.62" departLane="best" from="15973619#1" to="4610476#3"/>
    <trip id="truck55" type="truck_truck" depart="223.69" departLane="best" from="-195104960#5" to="15973619#12"/>
    <trip id="truck56" type="truck_truck" depart="227.75" departLane="best" from="136571494#1" to="169195795#7"/>
    <trip id="truck57" type="truck_truck" depart="231.82" departLane="best" from="4381079#3" to="340498982#3"/>
    <trip id="truck58" type="truck_truck" depart="235.89" departLane="best" from="527714921#0" to="-4610472#0"/>
    <trip id="truck59" type="truck_truck" depart="239.95" departLane="best" from="132600840#1" to="-4611714#1"/>
    <trip id="truck60" type="truck_truck" depart="244.02" departLane="best" from="-437325056#2" to="681299267#0"/>
    <trip id="truck61" type="truck_truck" depart="248.09" departLane="best" from="153698390#0" to="4773465#3"/>
    <trip id="truck62" type="truck_truck" depart="252.15" departLane="best" from="202817674#6" to="-158023913#2"/>
    <trip id="truck63" type="truck_truck" depart="256.22" departLane="best" from="77348147" to="68647306#2"/>
    <trip id="truck65" type="truck_truck" depart="264.36" departLane="best" from="164039095#0" to="-437325050#1"/>
    <trip id="truck66" type="truck_truck" depart="268.42" departLane="best" departSpeed="max" from="111833185#0" to="-15973619#3"/>
    <trip id="truck67" type="truck_truck" depart="272.49" departLane="best" from="-77348147" to="83517336#4"/>
    <trip id="truck68" type="truck_truck" depart="276.56" departLane="best" from="-4588211#1" to="4610476#3"/>
    <trip id="truck69" type="truck_truck" depart="280.62" departLane="best" from="755551646#2" to="894814132"/>
    <trip id="truck70" type="truck_truck" depart="284.69" departLane="best" from="-23809670#2" to="-533509622#1"/>
    <trip id="truck71" type="truck_truck" depart="288.76" departLane="best" from="77348147" to="24242882#3"/>
    <trip id="truck72" type="truck_truck" depart="292.82" departLane="best" from="202156995#0" to="4570580#3"/>
    <trip id="truck73" type="truck_truck" depart="296.89" departLane="best" from="-15973619#2" to="24243052#2"/>
    <trip id="truck74" type="truck_truck" depart="300.96" departLane="best" from="-24242882#0" to="76212441#4"/>
    <trip id="truck75" type="truck_truck" depart="305.03" departLane="best" from="-169660686#0" to="-35557143#4"/>
    <trip id="truck76" type="truck_truck" depart="309.09" departLane="best" departSpeed="max" from="-43156537" to="-23121445#3"/>
    <trip id="truck77" type="truck_truck" depart="313.16" departLane="best" departSpeed="max" from="60333312#0" to="-4597325#0"/>
    <trip id="truck78" type="truck_truck" depart="317.23" departLane="best" from="131577612#2" to="24243052#2"/>
    <trip id="truck79" type="truck_truck" depart="321.29" departLane="best" from="-326116285#2" to="43156537"/>
    <trip id="truck80" type="truck_truck" depart="325.36" departLane="best" departSpeed="max" from="-168935757#2" to="168937986#1"/>
    <trip id="truck81" type="truck_truck" depart="329.43" departLane="best" departSpeed="max" from="-168935757#2" to="-437325046#0"/>
    <trip id="truck82" type="truck_truck" depart="333.49" departLane="best" from="54781811#1" to="530085625#0"/>
    <trip id="truck83" type="truck_truck" depart="337.56" departLane="best" departSpeed="max" from="-710761407#5" to="-292429062#3"/>
    <trip id="truck85" type="truck_truck" depart="345.70" departLane="best" from="-23121445#0" to="-23017852#3"/>
    <trip id="truck86" type="truck_truck" depart="349.76" departLane="best" from="-4597322#3" to="251884680"/>
    <trip id="truck87" type="truck_truck" depart="353.83" departLane="best" from="43156728#2" to="-427637455"/>
    <trip id="truck88" type="truck_truck" depart="357.90" departLane="best" from="47935842" to="-195397541#0"/>
    <trip id="truck89" type="truck_truck" depart="361.96" departLane="best" from="292429063#0" to="-4611696#3"/>
    <trip id="truck91" type="truck_truck" depart="370.10" departLane="best" from="147066248#1" to="-111833186#0"/>
    <trip id="truck92" type="truck_truck" depart="374.16" departLane="best" departSpeed="max" from="-168935757#2" to="532727925#2"/>
    <trip id="truck93" type="truck_truck" depart="378.23" departLane="best" from="4773029#0" to="24243052#1"/>
    <trip id="truck94" type="truck_truck" depart="382.30" departLane="best" from="-4611708#4" to="55495482#1"/>
    <trip id="truck95" type="truck_truck" depart="386.37" departLane="best" from="4611708#1" to="4773465#2"/>
    <trip id="truck96" type="truck_truck" depart="390.43" departLane="best" from="-437325056#2" to="-202817674#3"/>
    <trip id="truck97" type="truck_truck" depart="394.50" departLane="best" from="4610608" to="532727925#2"/>
    <trip id="truck98" type="truck_truck" depart="398.57" departLane="best" from="-23809670#1" to="68647306#5"/>
    <trip id="truck100" type="truck_truck" depart="406.70" departLane="best" from="4611714#5" to="532727925#2"/>
    <trip id="truck101" type="truck_truck" depart="410.77" departLane="best" departSpeed="max" from="-136571494#3" to="4403559#0"/>
    <trip id="truck102" type="truck_truck" depart="414.83" departLane="best" departSpeed="max" from="-4611714#8" to="68647306#6"/>
    <trip id="truck103" type="truck_truck" depart="418.90" departLane="best" from="534588621#1" to="4773463#2"/>
    <trip id="truck104" type="truck_truck" depart="422.97" departLane="best" from="154041912#1" to="-541295974"/>
    <trip id="truck105" type="truck_truck" depart="427.04" departLane="best" from="4611708#0" to="-4570580#0"/>
    <trip id="truck106" type="truck_truck" depart="431.10" departLane="best" departSpeed="max" from="-136571494#3" to="-35578576#1"/>
    <trip id="truck108" type="truck_truck" depart="439.24" departLane="best" from="831694400" to="22972473#4"/>
    <trip id="truck109" type="truck_truck" depart="443.30" departLane="best" from="705182550" to="-23017852#3"/>
    <trip id="truck111" type="truck_truck" depart="451.44" departLane="best" from="76212441#6" to="-4611706#1"/>
    <trip id="truck112" type="truck_truck" depart="455.50" departLane="best" from="-202156991#1" to="15973619#15"/>
    <trip id="truck113" type="truck_truck" depart="459.57" departLane="best" from="-85255870#2" to="24242882#1"/>
    <trip id="truck114" type="truck_truck" depart="463.64" departLane="best" from="-108031933#1" to="68647306#1"/>
    <trip id="truck116" type="truck_truck" depart="471.77" departLane="best" from="-705182550" to="-168937986#4"/>
    <trip id="truck117" type="truck_truck" depart="475.84" departLane="best" from="327518240#0" to="-67713117#1"/>
    <trip id="truck118" type="truck_truck" depart="479.91" departLane="best" from="43231842#1" to="-534588621#0"/>
    <trip id="truck119" type="truck_truck" depart="483.97" departLane="best" from="-4611710#0" to="153698402#3"/>
    <trip id="truck120" type="truck_truck" depart="488.04" departLane="best" departSpeed="max" from="111833185#0" to="-505475202#1"/>
    <trip id="truck121" type="truck_truck" depart="492.11" departLane="best" from="-22972473#4" to="156364570#0"/>
    <trip id="truck122" type="truck_truck" depart="496.17" departLane="best" from="705182551" to="340498982#9"/>
    <trip id="truck123" type="truck_truck" depart="500.24" departLane="best" from="66071366#2" to="28016312#1"/>
    <trip id="truck124" type="truck_truck" depart="504.31" departLane="best" from="-105352753" to="-4611718#1"/>
    <trip id="truck125" type="truck_truck" depart="508.38" departLane="best" from="147066248#4" to="24242892#0"/>
    <trip id="truck126" type="truck_truck" depart="512.44" departLane="best" from="320420912#0" to="169195795#5"/>
    <trip id="truck127" type="truck_truck" depart="516.51" departLane="best" from="15973619#10" to="60333312#1"/>
    <trip id="truck128" type="truck_truck" depart="520.58" departLane="best" from="-176273730#2" to="202157002#0"/>
    <trip id="truck129" type="truck_truck" depart="524.64" departLane="best" from="292429056#3" to="-67713117#6"/>
    <trip id="truck131" type="truck_truck" depart="532.78" departLane="best" from="340498976#10" to="-4403526#3"/>
    <trip id="truck132" type="truck_truck" depart="536.84" departLane="best" from="-320462163#0" to="-147066248#2"/>
    <trip id="truck133" type="truck_truck" depart="540.91" departLane="best" from="-43376477#0" to="171484594#1"/>
    <trip id="truck136" type="truck_truck" depart="553.11" departLane="best" from="-292429063#0" to="35578559"/>
    <trip id="truck137" type="truck_truck" depart="557.18" departLane="best" from="169195795#5" to="-4597324#2"/>
    <trip id="truck138" type="truck_truck" depart="561.25" departLane="best" from="320420912#1" to="-111833185#0"/>
    <trip id="truck139" type="truck_truck" depart="565.31" departLane="best" departSpeed="max" from="-24997595#1" to="76212438#3"/>
    <trip id="truck140" type="truck_truck" depart="569.38" departLane="best" from="-437325055#2" to="47707170#7"/>
    <trip id="truck141" type="truck_truck" depart="573.45" departLane="best" from="153698413" to="4611696#5"/>
    <trip id="truck142" type="truck_truck" depart="577.51" departLane="best" from="339201177#1" to="840229278#1"/>
    <trip id="truck143" type="truck_truck" depart="581.58" departLane="best" departSpeed="max" from="60333312#0" to="25302636#1"/>
    <trip id="truck146" type="truck_truck" depart="593.78" departLane="best" from="4597324#3" to="202817674#5"/>
    <trip id="truck147" type="truck_truck" depart="597.85" departLane="best" from="28016312#0" to="-4611711#1"/>
    <trip id="truck148" type="truck_truck" depart="601.92" departLane="best" from="-168937986#4" to="-4611718#0"/>
    <trip id="truck149" type="truck_truck" depart="605.98" departLane="best" from="-4597322#1" to="-66071366#1"/>
    <trip id="truck150" type="truck_truck" depart="610.05" departLane="best" from="202156991#1" to="-24242882#3"/>
    <trip id="truck151" type="truck_truck" depart="614.12" departLane="best" from="-38912785" to="35557161#6"/>
    <trip id="truck152" type="truck_truck" depart="618.18" departLane="best" from="111833186#2" to="23017853"/>
    <trip id="truck153" type="truck_truck" depart="622.25" departLane="best" from="131577613#1" to="61584187#2"/>
    <trip id="truck155" type="truck_truck" depart="630.39" departLane="best" from="131577612#2" to="4570580#2"/>
    <trip id="truck156" type="truck_truck" depart="634.45" departLane="best" from="202157002#2" to="24997595#0"/>
    <trip id="truck157" type="truck_truck" depart="638.52" departLane="best" from="-35557161#4" to="-4402014#2"/>
    <trip id="truck158" type="truck_truck" depart="642.59" departLane="best" from="153698384" to="-147066248#6"/>
    <trip id="truck159" type="truck_truck" depart="646.65" departLane="best" from="158023913#0" to="-23755950#1"/>
    <trip id="truck160" type="truck_truck" depart="650.72" departLane="best" departSpeed="max" from="-98399537" to="23755950#2"/>
    <trip id="truck161" type="truck_truck" depart="654.79" departLane="best" from="-147066248#0" to="320420912#0"/>
    <trip id="truck162" type="truck_truck" depart="658.85" departLane="best" from="-15973619#12" to="131577613#1"/>
    <trip id="truck163" type="truck_truck" depart="662.92" departLane="best" from="-339201177#4" to="-67713117#1"/>
    <trip id="truck164" type="truck_truck" depart="666.99" departLane="best" from="4588219#1" to="4611714#8"/>
    <trip id="truck165" type="truck_truck" depart="671.06" departLane="best" from="-4401967#2" to="-195091665#0"/>
    <trip id="truck166" type="truck_truck" depart="675.12" departLane="best" from="30721662#2" to="4610472#2"/>
    <trip id="truck167" type="truck_truck" depart="679.19" departLane="best" from="31313667#1" to="4588220#0"/>
    <trip id="truck168" type="truck_truck" depart="683.26" departLane="best" from="753316505#0" to="-387892378"/>
    <trip id="truck169" type="truck_truck" depart="687.32" departLane="best" from="-136571494#2" to="-28251222#1"/>
    <trip id="truck170" type="truck_truck" depart="691.39" departLane="best" from="-22972473#3" to="340498976#6"/>
    <trip id="truck171" type="truck_truck" depart="695.46" departLane="best" from="23017852#2" to="-4381079#3"/>
    <trip id="truck172" type="truck_truck" depart="699.52" departLane="best" from="35578576#1" to="4597324#4"/>
    <trip id="truck173" type="truck_truck" depart="703.59" departLane="best" from="-243854725#4" to="25294729#0"/>
    <trip id="truck174" type="truck_truck" depart="707.66" departLane="best" from="4570580#3" to="-23017852#2"/>
    <trip id="truck176" type="truck_truck" depart="715.79" departLane="best" from="-202156991#1" to="-147066248#3"/>
    <trip id="truck178" type="truck_truck" depart="723.93" departLane="best" from="-195397541#2" to="4597325#1"/>
    <trip id="truck180" type="truck_truck" depart="732.06" departLane="best" departSpeed="max" from="-22972470#1" to="83517336#0"/>
    <trip id="truck181" type="truck_truck" depart="736.13" departLane="best" from="4610610#2" to="-77348147"/>
    <trip id="truck182" type="truck_truck" depart="740.19" departLane="best" from="147066248#2" to="111833186#1"/>
    <trip id="truck183" type="truck_truck" depart="744.26" departLane="best" departSpeed="max" from="171826985#0" to="-755551646#0"/>
    <trip id="truck185" type="truck_truck" depart="752.40" departLane="best" from="-195397561#6" to="76212441#4"/>
    <trip id="truck186" type="truck_truck" depart="756.46" departLane="best" from="292429062#2" to="4611714#8"/>
    <trip id="truck187" type="truck_truck" depart="760.53" departLane="best" from="389101365#0" to="15973619#15"/>
    <trip id="truck189" type="truck_truck" depart="768.66" departLane="best" from="-4592739" to="4611708#3"/>
    <trip id="truck191" type="truck_truck" depart="776.80" departLane="best" from="153698384" to="4402014#0"/>
    <trip id="truck193" type="truck_truck" depart="784.93" departLane="best" departSpeed="max" from="55495482#0" to="-4597324#2"/>
    <trip id="truck194" type="truck_truck" depart="789.00" departLane="best" from="-77348147" to="-147066248#6"/>
    <trip id="truck196" type="truck_truck" depart="797.13" departLane="best" from="-492340367#0" to="532727925#1"/>
    <trip id="truck197" type="truck_truck" depart="801.20" departLane="best" departSpeed="max" from="36259518" to="-4611713#0"/>
    <trip id="truck198" type="truck_truck" depart="805.27" departLane="best" from="-111833186#1" to="751602168"/>
    <trip id="truck199" type="truck_truck" depart="809.33" departLane="best" from="-188240629#0" to="43231842#2"/>
    <trip id="truck200" type="truck_truck" depart="813.40" departLane="best" from="168937986#3" to="4597320#1"/>
    <trip id="truck201" type="truck_truck" depart="817.47" departLane="best" from="35557143#1" to="320420916#0"/>
    <trip id="truck202" type="truck_truck" depart="821.53" departLane="best" from="168937986#5" to="4610610#2"/>
    <trip id="truck203" type="truck_truck" depart="825.60" departLane="best" from="35557161#0" to="-55495482#0"/>
    <trip id="truck204" type="truck_truck" depart="829.67" departLane="best" from="4570580#0" to="-67713117#1"/>
    <trip id="truck205" type="truck_truck" depart="833.74" departLane="best" departSpeed="max" from="36259518" to="-4611710#0"/>
    <trip id="truck206" type="truck_truck" depart="837.80" departLane="best" from="-4381079#3" to="-23121445#3"/>
    <trip id="truck207" type="truck_truck" depart="841.87" departLane="best" from="-292429062#2" to="-23121445#2"/>
    <trip id="truck208" type="truck_truck" depart="845.94" departLane="best" from="196850609#0" to="4597322#6"/>
    <trip id="truck209" type="truck_truck" depart="850.00" departLane="best" from="-28016312#0" to="-4381079#2"/>
    <trip id="truck210" type="truck_truck" depart="854.07" departLane="best" from="15973619#9" to="437325050#1"/>
    <trip id="truck211" type="truck_truck" depart="858.14" departLane="best" departSpeed="max" from="78298215#0" to="210668637#1"/>
    <trip id="truck212" type="truck_truck" depart="862.20" departLane="best" departSpeed="max" from="-4597324#4" to="-202156991#1"/>
    <trip id="truck213" type="truck_truck" depart="866.27" departLane="best" departSpeed="max" from="-25294729#1" to="-120675240#3"/>
    <trip id="truck214" type="truck_truck" depart="870.34" departLane="best" from="195411602#1" to="-4611711#0"/>
    <trip id="truck216" type="truck_truck" depart="878.47" departLane="best" from="35578559" to="-23755739#4"/>
    <trip id="truck217" type="truck_truck" depart="882.54" departLane="best" departSpeed="max" from="534588621#0" to="195104960#1"/>
    <trip id="truck218" type="truck_truck" depart="886.61" departLane="best" from="534588621#1" to="24240246#2"/>
    <trip id="truck219" type="truck_truck" depart="890.67" departLane="best" from="158023913#4" to="15973619#5"/>
    <trip id="truck220" type="truck_truck" depart="894.74" departLane="best" from="-28016312#0" to="-158023913#6"/>
    <trip id="truck221" type="truck_truck" depart="898.81" departLane="best" from="465376240#0" to="153698384"/>
    <trip id="truck223" type="truck_truck" depart="906.94" departLane="best" departSpeed="max" from="-15973619#15" to="-28016312#0"/>
    <trip id="truck224" type="truck_truck" depart="911.01" departLane="best" from="23017852#1" to="-534588621#1"/>
    <trip id="truck225" type="truck_truck" depart="915.08" departLane="best" from="882389494" to="-23121445#1"/>
    <trip id="truck226" type="truck_truck" depart="919.14" departLane="best" from="4597324#2" to="25294728"/>
    <trip id="truck227" type="truck_truck" depart="923.21" departLane="best" from="4611696#4" to="-4412868"/>
    <trip id="truck228" type="truck_truck" depart="927.28" departLane="best" departSpeed="max" from="195091665#0" to="164039095#1"/>
    <trip id="truck229" type="truck_truck" depart="931.34" departLane="best" from="153698390#0" to="4773465#2"/>
    <trip id="truck230" type="truck_truck" depart="935.41" departLane="best" from="85255870#0" to="-541295974"/>
    <trip id="truck231" type="truck_truck" depart="939.48" departLane="best" from="24997595#1" to="25294729#1"/>
    <trip id="truck232" type="truck_truck" depart="943.54" departLane="best" from="-339201177#0" to="-43376477#0"/>
    <trip id="truck233" type="truck_truck" depart="947.61" departLane="best" departSpeed="max" from="-24997595#1" to="-173296880"/>
    <trip id="truck234" type="truck_truck" depart="951.68" departLane="best" from="-109902441#0" to="164039095#1"/>
    <trip id="truck235" type="truck_truck" depart="955.75" departLane="best" from="-38912785" to="4067932#1"/>
    <trip id="truck236" type="truck_truck" depart="959.81" departLane="best" departSpeed="max" from="36259518" to="168935757#0"/>
    <trip id="truck237" type="truck_truck" depart="963.88" departLane="best" from="34848160#2" to="681299267#0"/>
    <trip id="truck238" type="truck_truck" depart="967.95" departLane="best" from="4611693#2" to="292429062#3"/>
    <trip id="truck239" type="truck_truck" depart="972.01" departLane="best" from="326116285#0" to="705182550"/>
    <trip id="truck240" type="truck_truck" depart="976.08" departLane="best" departSpeed="max" from="30721662#0" to="6228081"/>
    <trip id="truck241" type="truck_truck" depart="980.15" departLane="best" from="-243854725#2" to="-55495482#0"/>
    <trip id="truck242" type="truck_truck" depart="984.21" departLane="best" from="4588211#1" to="23809670#2"/>
    <trip id="truck243" type="truck_truck" depart="988.28" departLane="best" from="-4610472#4" to="-23755739#2"/>
    <trip id="truck244" type="truck_truck" depart="992.35" departLane="best" from="710761407#1" to="195397561#5"/>
    <trip id="truck245" type="truck_truck" depart="996.42" departLane="best" from="169195795#5" to="-195091665#0"/>
    <trip id="truck246" type="truck_truck" depart="1000.48" departLane="best" from="-153698415#2" to="15973619#14"/>
    <trip id="truck247" type="truck_truck" depart="1004.55" departLane="best" from="-4611714#2" to="-4610472#4"/>
    <trip id="truck248" type="truck_truck" depart="1008.62" departLane="best" from="4773029#2" to="24240246#3"/>
    <trip id="truck249" type="truck_truck" depart="1012.68" departLane="best" from="753316506" to="930343902"/>
    <trip id="truck250" type="truck_truck" depart="1016.75" departLane="best" from="-156364570#0" to="4588222#1"/>
    <trip id="truck251" type="truck_truck" depart="1020.82" departLane="best" from="15971197#0" to="326116285#3"/>
    <trip id="truck252" type="truck_truck" depart="1024.88" departLane="best" from="67713117#5" to="-339201185"/>
    <trip id="truck254" type="truck_truck" depart="1033.02" departLane="best" from="169195795#0" to="-195105328#1"/>
    <trip id="truck255" type="truck_truck" depart="1037.09" departLane="best" from="-55495482#1" to="-67713117#4"/>
    <trip id="truck256" type="truck_truck" depart="1041.15" departLane="best" from="339201177#4" to="4773463#2"/>
    <trip id="truck257" type="truck_truck" depart="1045.22" departLane="best" from="-4610472#1" to="72157174#1"/>
    <trip id="truck259" type="truck_truck" depart="1053.35" departLane="best" from="111833185#1" to="202156995#1"/>
    <trip id="truck261" type="truck_truck" depart="1061.49" departLane="best" from="202156995#1" to="153698415#2"/>
    <trip id="truck262" type="truck_truck" depart="1065.55" departLane="best" from="-28251222#1" to="108031933#0"/>
    <trip id="truck263" type="truck_truck" depart="1069.62" departLane="best" from="4588222#1" to="292429063#0"/>
    <trip id="truck264" type="truck_truck" depart="1073.69" departLane="best" from="4597322#3" to="-427637455"/>
    <trip id="truck265" type="truck_truck" depart="1077.76" departLane="best" from="202817674#5" to="68647306#3"/>
    <trip id="truck266" type="truck_truck" depart="1081.82" departLane="best" departSpeed="max" from="153698387#0" to="35578576#1"/>
    <trip id="truck267" type="truck_truck" depart="1085.89" departLane="best" departSpeed="max" from="-22972470#1" to="77348147"/>
    <trip id="truck268" type="truck_truck" depart="1089.96" departLane="best" from="243854725#3" to="-4597322#3"/>
    <trip id="truck269" type="truck_truck" depart="1094.02" departLane="best" from="-24242882#1" to="234463931#1"/>
    <trip id="truck270" type="truck_truck" depart="1098.09" departLane="best" from="210668637#1" to="-195397541#1"/>
    <trip id="truck271" type="truck_truck" depart="1102.16" departLane="best" from="154041920" to="-23121445#0"/>
    <trip id="truck273" type="truck_truck" depart="1110.29" departLane="best" from="427637455" to="202156991#2"/>
    <trip id="truck274" type="truck_truck" depart="1114.36" departLane="best" from="-4597322#4" to="4611718#1"/>