<?xml version="1.0" encoding="UTF-8"?>

<!-- generated on 08/22/21 11:42:30 by Eclipse SUMO duarouter Version 1.7.0
<configuration xmlns:xsi="http://www.w3.org/2001/XMLSchema-instance" xsi:noNamespaceSchemaLocation="http://sumo.dlr.de/xsd/duarouterConfiguration.xsd">

    <input>
        <net-file value="d:\Program%20Files%20(x86)\Eclipse\Sumo\tools\2021-08-22-11-42-08\osm.net.xml"/>
        <route-files value="d:\Program%20Files%20(x86)\Eclipse\Sumo\tools\2021-08-22-11-42-08\osm.bus.trips.xml"/>
    </input>

    <output>
        <output-file value="d:\Program%20Files%20(x86)\Eclipse\Sumo\tools\2021-08-22-11-42-08\osm.bus.trips.xml.tmp"/>
        <write-trips value="true"/>
    </output>

    <time>
        <begin value="0"/>
        <end value="3600"/>
    </time>

    <report>
        <no-warnings value="true"/>
        <ignore-errors value="true"/>
        <no-step-log value="true"/>
    </report>

</configuration>
-->

<routes xmlns:xsi="http://www.w3.org/2001/XMLSchema-instance" xsi:noNamespaceSchemaLocation="http://sumo.dlr.de/xsd/routes_file.xsd">
    <vType id="bus_bus" vClass="bus"/>
    <trip id="bus0" type="bus_bus" depart="0.00" departLane="best" from="-4597322#6" to="-4403526#1"/>
    <trip id="bus1" type="bus_bus" depart="8.13" departLane="best" from="4403559#0" to="340498982#8"/>
    <trip id="bus2" type="bus_bus" depart="16.27" departLane="best" from="132600840#1" to="-147066248#7"/>
    <trip id="bus3" type="bus_bus" depart="24.40" departLane="best" from="-137630045" to="-387892378"/>
    <trip id="bus4" type="bus_bus" depart="32.54" departLane="best" from="-35557161#4" to="24243092#1"/>
    <trip id="bus5" type="bus_bus" depart="40.67" departLane="best" from="4611714#4" to="-111833185#0"/>
    <trip id="bus6" type="bus_bus" depart="48.80" departLane="best" from="4611714#0" to="35578576#0"/>
    <trip id="bus7" type="bus_bus" depart="56.94" departLane="best" from="755551646#2" to="-67713117#7"/>
    <trip id="bus9" type="bus_bus" depart="73.21" departLane="best" from="4611714#2" to="4401967#0"/>
    <trip id="bus10" type="bus_bus" depart="81.34" departLane="best" from="196850609#0" to="77348147"/>
    <trip id="bus11" type="bus_bus" depart="89.47" departLane="best" from="527714921#0" to="24242882#1"/>
    <trip id="bus12" type="bus_bus" depart="97.61" departLane="best" departSpeed="max" from="36259518" to="-156364570#0"/>
    <trip id="bus13" type="bus_bus" depart="105.74" departLane="best" from="-35578576#1" to="-4773029#0"/>
    <trip id="bus14" type="bus_bus" depart="113.88" departLane="best" from="-169660686#0" to="-4588219#0"/>
    <trip id="bus15" type="bus_bus" depart="122.01" departLane="best" from="-195397541#1" to="-4611714#0"/>
    <trip id="bus16" type="bus_bus" depart="130.14" departLane="best" from="292429062#2" to="109902441#1"/>
    <trip id="bus17" type="bus_bus" depart="138.28" departLane="best" departSpeed="max" from="-710761407#5" to="-43231842#3"/>
    <trip id="bus18" type="bus_bus" depart="146.41" departLane="best" from="-24997595#0" to="4381079#3"/>
    <trip id="bus19" type="bus_bus" depart="154.55" departLane="best" departSpeed="max" from="-24243101" to="131577613#1"/>
    <trip id="bus20" type="bus_bus" depart="162.68" departLane="best" from="85255870#0" to="31313667#1"/>
    <trip id="bus21" type="bus_bus" depart="170.81" departLane="best" departSpeed="max" from="478396988" to="4597326"/>
    <trip id="bus22" type="bus_bus" depart="178.95" departLane="best" from="54048863" to="-60333312#0"/>
    <trip id="bus23" type="bus_bus" depart="187.08" departLane="best" from="320420912#1" to="147066248#5"/>
    <trip id="bus24" type="bus_bus" depart="195.22" departLane="best" from="67713117#3" to="168937986#3"/>
    <trip id="bus25" type="bus_bus" depart="203.35" departLane="best" from="-4588211#1" to="-4597325#1"/>
    <trip id="bus26" type="bus_bus" depart="211.48" departLane="best" from="930343901#3" to="202156991#2"/>
    <trip id="bus27" type="bus_bus" depart="219.62" departLane="best" departSpeed="max" from="-195091665#2" to="-156364570#1"/>
    <trip id="bus29" type="bus_bus" depart="235.89" departLane="best" from="-15973619#9" to="132600840#1"/>
    <trip id="bus30" type="bus_bus" depart="244.02" departLane="best" from="894814132" to="22972470#1"/>
    <trip id="bus32" type="bus_bus" depart="260.29" departLane="best" from="-4588219#0" to="31313667#2"/>
    <trip id="bus33" type="bus_bus" depart="268.42" departLane="best" departSpeed="max" from="-202156991#2" to="15973619#15"/>
    <trip id="bus34" type="bus_bus" depart="276.56" departLane="best" from="153698402#4" to="76212438#2"/>
    <trip id="bus35" type="bus_bus" depart="284.69" departLane="best" from="171423001#0" to="-339201185"/>
    <trip id="bus36" type="bus_bus" depart="292.82" departLane="best" departSpeed="max" from="67713117#0" to="48859718#0"/>
    <trip id="bus37" type="bus_bus" depart="300.96" departLane="best" from="-4611693#1" to="31112516"/>
    <trip id="bus38" type="bus_bus" depart="309.09" departLane="best" from="4597322#7" to="23013165#2"/>
    <trip id="bus39" type="bus_bus" depart="317.23" departLane="best" from="4610607" to="22972470#1"/>
    <trip id="bus40" type="bus_bus" depart="325.36" departLane="best" from="-105352753" to="-66071373#3"/>
    <trip id="bus41" type="bus_bus" depart="333.49" departLane="best" from="-136571494#1" to="68647306#5"/>
    <trip id="bus42" type="bus_bus" depart="341.63" departLane="best" from="541763975" to="4611714#8"/>
    <trip id="bus43" type="bus_bus" depart="349.76" departLane="best" departSpeed="max" from="-164039095#1" to="4597322#4"/>
    <trip id="bus44" type="bus_bus" depart="357.90" departLane="best" from="4597324#3" to="-23755950#1"/>
    <trip id="bus45" type="bus_bus" depart="366.03" departLane="best" from="-4588211#1" to="48859718#0"/>
    <trip id="bus46" type="bus_bus" depart="374.16" departLane="best" from="202156991#0" to="4401967#0"/>
    <trip id="bus47" type="bus_bus" depart="382.30" departLane="best" from="-320462164#0" to="-60333312#0"/>
    <trip id="bus48" type="bus_bus" depart="390.43" departLane="best" departSpeed="max" from="153698387#0" to="202157002#2"/>
    <trip id="bus49" type="bus_bus" depart="398.57" departLane="best" departSpeed="max" from="-22972470#1" to="-4403526#3"/>
    <trip id="bus50" type="bus_bus" depart="406.70" departLane="best" departSpeed="max" from="-168935757#2" to="305153174"/>
    <trip id="bus51" type="bus_bus" depart="414.83" departLane="best" from="-35578576#2" to="61584187#2"/>
    <trip id="bus52" type="bus_bus" depart="422.97" departLane="best" departSpeed="max" from="-43156537" to="340498976#6"/>
    <trip id="bus53" type="bus_bus" depart="431.10" departLane="best" from="-34848160#2" to="-23755961#2"/>
    <trip id="bus54" type="bus_bus" depart="439.24" departLane="best" from="15973619#1" to="4610476#3"/>
    <trip id="bus55" type="bus_bus" depart="447.37" departLane="best" from="-195104960#5" to="15973619#12"/>
    <trip id="bus56" type="bus_bus" depart="455.50" departLane="best" from="136571494#1" to="169195795#7"/>
    <trip id="bus57" type="bus_bus" depart="463.64" departLane="best" from="4381079#3" to="340498982#3"/>
    <trip id="bus58" type="bus_bus" depart="471.77" departLane="best" from="527714921#0" to="-4610472#0"/>
    <trip id="bus59" type="bus_bus" depart="479.91" departLane="best" from="132600840#1" to="-4611714#1"/>
    <trip id="bus60" type="bus_bus" depart="488.04" departLane="best" from="-437325056#2" to="681299267#0"/>
    <trip id="bus61" type="bus_bus" depart="496.17" departLane="best" from="153698390#0" to="4773465#3"/>
    <trip id="bus62" type="bus_bus" depart="504.31" departLane="best" from="202817674#6" to="-158023913#2"/>
    <trip id="bus63" type="bus_bus" depart="512.44" departLane="best" from="77348147" to="68647306#2"/>
    <trip id="bus65" type="bus_bus" depart="528.71" departLane="best" from="164039095#0" to="-437325050#1"/>
    <trip id="bus66" type="bus_bus" depart="536.84" departLane="best" departSpeed="max" from="111833185#0" to="-15973619#3"/>
    <trip id="bus67" type="bus_bus" depart="544.98" departLane="best" from="-77348147" to="83517336#4"/>
    <trip id="bus68" type="bus_bus" depart="553.11" departLane="best" from="-4588211#1" to="4610476#3"/>
    <trip id="bus69" type="bus_bus" depart="561.25" departLane="best" from="755551646#2" to="894814132"/>
    <trip id="bus70" type="bus_bus" depart="569.38" departLane="best" from="-23809670#2" to="-533509622#1"/>
    <trip id="bus71" type="bus_bus" depart="577.51" departLane="best" from="77348147" to="24242882#3"/>
    <trip id="bus72" type="bus_bus" depart="585.65" departLane="best" from="202156995#0" to="4570580#3"/>
    <trip id="bus73" type="bus_bus" depart="593.78" departLane="best" from="-15973619#2" to="24243052#2"/>
    <trip id="bus74" type="bus_bus" depart="601.92" departLane="best" from="-24242882#0" to="76212441#4"/>
    <trip id="bus75" type="bus_bus" depart="610.05" departLane="best" from="-169660686#0" to="-35557143#4"/>
    <trip id="bus76" type="bus_bus" depart="618.18" departLane="best" departSpeed="max" from="-43156537" to="-23121445#3"/>
    <trip id="bus77" type="bus_bus" depart="626.32" departLane="best" departSpeed="max" from="60333312#0" to="-4597325#0"/>
    <trip id="bus78" type="bus_bus" depart="634.45" departLane="best" from="131577612#2" to="24243052#2"/>
    <trip id="bus79" type="bus_bus" depart="642.59" departLane="best" from="-326116285#2" to="43156537"/>
    <trip id="bus80" type="bus_bus" depart="650.72" departLane="best" departSpeed="max" from="-168935757#2" to="168937986#1"/>
    <trip id="bus81" type="bus_bus" depart="658.85" departLane="best" departSpeed="max" from="-168935757#2" to="-437325046#0"/>
    <trip id="bus82" type="bus_bus" depart="666.99" departLane="best" from="54781811#1" to="530085625#0"/>
    <trip id="bus83" type="bus_bus" depart="675.12" departLane="best" departSpeed="max" from="-710761407#5" to="-292429062#3"/>
    <trip id="bus85" type="bus_bus" depart="691.39" departLane="best" from="-23121445#0" to="-23017852#3"/>
    <trip id="bus86" type="bus_bus" depart="699.52" departLane="best" from="-4597322#3" to="251884680"/>
    <trip id="bus87" type="bus_bus" depart="707.66" departLane="best" from="43156728#2" to="-427637455"/>
    <trip id="bus88" type="bus_bus" depart="715.79" departLane="best" from="47935842" to="-195397541#0"/>
    <trip id="bus89" type="bus_bus" depart="723.93" departLane="best" from="292429063#0" to="-4611696#3"/>
    <trip id="bus91" type="bus_bus" depart="740.19" departLane="best" from="147066248#1" to="-111833186#0"/>
    <trip id="bus92" type="bus_bus" depart="748.33" departLane="best" departSpeed="max" from="-168935757#2" to="532727925#2"/>
    <trip id="bus93" type="bus_bus" depart="756.46" departLane="best" from="4773029#0" to="24243052#1"/>
    <trip id="bus94" type="bus_bus" depart="764.60" departLane="best" from="-4611708#4" to="55495482#1"/>
    <trip id="bus95" type="bus_bus" depart="772.73" departLane="best" from="4611708#1" to="4773465#2"/>
    <trip id="bus96" type="bus_bus" depart="780.86" departLane="best" from="-437325056#2" to="-202817674#3"/>
    <trip id="bus97" type="bus_bus" depart="789.00" departLane="best" from="4610608" to="532727925#2"/>
    <trip id="bus98" type="bus_bus" depart="797.13" departLane="best" from="-23809670#1" to="68647306#5"/>
    <trip id="bus100" type="bus_bus" depart="813.40" departLane="best" from="4611714#5" to="532727925#2"/>
    <trip id="bus101" type="bus_bus" depart="821.53" departLane="best" departSpeed="max" from="-136571494#3" to="4403559#0"/>
    <trip id="bus102" type="bus_bus" depart="829.67" departLane="best" departSpeed="max" from="-4611714#8" to="68647306#6"/>
    <trip id="bus103" type="bus_bus" depart="837.80" departLane="best" from="534588621#1" to="4773463#2"/>
    <trip id="bus104" type="bus_bus" depart="845.94" departLane="best" from="154041912#1" to="-541295974"/>
    <trip id="bus105" type="bus_bus" depart="854.07" departLane="best" from="4611708#0" to="-4570580#0"/>
    <trip id="bus106" type="bus_bus" depart="862.20" departLane="best" departSpeed="max" from="-136571494#3" to="-35578576#1"/>
    <trip id="bus108" type="bus_bus" depart="878.47" departLane="best" from="831694400" to="22972473#4"/>
    <trip id="bus109" type="bus_bus" depart="886.61" departLane="best" from="705182550" to="-23017852#3"/>
    <trip id="bus111" type="bus_bus" depart="902.87" departLane="best" from="76212441#6" to="-4611706#1"/>
    <trip id="bus112" type="bus_bus" depart="911.01" departLane="best" from="-202156991#1" to="15973619#15"/>
    <trip id="bus113" type="bus_bus" depart="919.14" departLane="best" from="-85255870#2" to="24242882#1"/>
    <trip id="bus114" type="bus_bus" depart="927.28" departLane="best" from="-108031933#1" to="68647306#1"/>
    <trip id="bus116" type="bus_bus" depart="943.54" departLane="best" from="-705182550" to="-168937986#4"/>
    <trip id="bus117" type="bus_bus" depart="951.68" departLane="best" from="327518240#0" to="-67713117#1"/>
    <trip id="bus118" type="bus_bus" depart="959.81" departLane="best" from="43231842#1" to="-534588621#0"/>
    <trip id="bus119" type="bus_bus" depart="967.95" departLane="best" from="-4611710#0" to="153698402#3"/>
    <trip id="bus120" type="bus_bus" depart="976.08" departLane="best" departSpeed="max" from="111833185#0" to="-505475202#1"/>
    <trip id="bus121" type="bus_bus" depart="984.21" departLane="best" from="-22972473#4" to="156364570#0"/>
    <trip id="bus122" type="bus_bus" depart="992.35" departLane="best" from="705182551" to="340498982#9"/>
    <trip id="bus123" type="bus_bus" depart="1000.48" departLane="best" from="66071366#2" to="28016312#1"/>
    <trip id="bus124" type="bus_bus" depart="1008.62" departLane="best" from="-105352753" to="-4611718#1"/>
    <trip id="bus125" type="bus_bus" depart="1016.75" departLane="best" from="147066248#4" to="24242892#0"/>
    <trip id="bus126" type="bus_bus" depart="1024.88" departLane="best" from="320420912#0" to="169195795#5"/>
    <trip id="bus127" type="bus_bus" depart="1033.02" departLane="best" from="15973619#10" to="60333312#1"/>
    <trip id="bus128" type="bus_bus" depart="1041.15" departLane="best" from="-176273730#2" to="202157002#0"/>
    <trip id="bus129" type="bus_bus" depart="1049.29" departLane="best" from="292429056#3" to="-67713117#6"/>
    <trip id="bus131" type="bus_bus" depart="1065.55" departLane="best" from="340498976#10" to="-4403526#3"/>
    <trip id="bus132" type="bus_bus" depart="1073.69" departLane="best" from="-320462163#0" to="-147066248#2"/>
    <trip id="bus133" type="bus_bus" depart="1081.82" departLane="best" from="-43376477#0" to="171484594#1"/>
    <trip id="bus136" type="bus_bus" depart="1106.22" departLane="best" from="-292429063#0" to="35578559"/>
    <trip id="bus137" type="bus_bus" depart="1114.36" departLane="best" from="169195795#5" to="-4597324#2"/>
    <trip id="bus138" type="bus_bus" depart="1122.49" departLane="best" from="320420912#1" to="-111833185#0"/>
    <trip id="bus139" type="bus_bus" depart="1130.63" departLane="best" departSpeed="max" from="-24997595#1" to="76212438#3"/>
    <trip id="bus140" type="bus_bus" depart="1138.76" departLane="best" from="-437325055#2" to="47707170#7"/>
    <trip id="bus141" type="bus_bus" depart="1146.90" departLane="best" from="153698413" to="4611696#5"/>
    <trip id="bus142" type="bus_bus" depart="1155.03" departLane="best" from="339201177#1" to="840229278#1"/>
    <trip id="bus143" type="bus_bus" depart="1163.16" departLane="best" departSpeed="max" from="60333312#0" to="25302636#1"/>
    <trip id="bus146" type="bus_bus" depart="1187.57" departLane="best" from="4597324#3" to="202817674#5"/>
    <trip id="bus147" type="bus_bus" depart="1195.70" departLane="best" from="28016312#0" to="-4611711#1"/>
    <trip id="bus148" type="bus_bus" depart="1203.83" departLane="best" from="-168937986#4" to="-4611718#0"/>
    <trip id="bus149" type="bus_bus" depart="1211.97" departLane="best" from="-4597322#1" to="-66071366#1"/>
    <trip id="bus150" type="bus_bus" depart="1220.10" departLane="best" from="202156991#1" to="-24242882#3"/>
    <trip id="bus151" type="bus_bus" depart="1228.24" departLane="best" from="-38912785" to="35557161#6"/>
    <trip id="bus152" type="bus_bus" depart="1236.37" departLane="best" from="111833186#2" to="23017853"/>
    <trip id="bus153" type="bus_bus" depart="1244.50" departLane="best" from="131577613#1" to="61584187#2"/>
    <trip id="bus155" type="bus_bus" depart="1260.77" departLane="best" from="131577612#2" to="4570580#2"/>
    <trip id="bus156" type="bus_bus" depart="1268.91" departLane="best" from="202157002#2" to="24997595#0"/>
    <trip id="bus157" type="bus_bus" depart="1277.04" departLane="best" from="-35557161#4" to="-4402014#2"/>
    <trip id="bus158" type="bus_bus" depart="1285.17" departLane="best" from="153698384" to="-147066248#6"/>
    <trip id="bus159" type="bus_bus" depart="1293.31" departLane="best" from="158023913#0" to="-23755950#1"/>
    <trip id="bus160" type="bus_bus" depart="1301.44" departLane="best" departSpeed="max" from="-98399537" to="23755950#2"/>
    <trip id="bus161" type="bus_bus" depart="1309.58" departLane="best" from="-147066248#0" to="320420912#0"/>
    <trip id="bus162" type="bus_bus" depart="1317.71" departLane="best" from="-15973619#12" to="131577613#1"/>
    <trip id="bus163" type="bus_bus" depart="1325.84" departLane="best" from="-339201177#4" to="-67713117#1"/>
    <trip id="bus164" type="bus_bus" depart="1333.98" departLane="best" from="4588219#1" to="4611714#8"/>
    <trip id="bus165" type="bus_bus" depart="1342.11" departLane="best" from="-4401967#2" to="-195091665#0"/>
    <trip id="bus166" type="bus_bus" depart="1350.25" departLane="best" from="30721662#2" to="4610472#2"/>
    <trip id="bus167" type="bus_bus" depart="1358.38" departLane="best" from="31313667#1" to="4588220#0"/>
    <trip id="bus168" type="bus_bus" depart="1366.51" departLane="best" from="753316505#0" to="-387892378"/>
    <trip id="bus169" type="bus_bus" depart="1374.65" departLane="best" from="-136571494#2" to="-28251222#1"/>
    <trip id="bus170" type="bus_bus" depart="1382.78" departLane="best" from="-22972473#3" to="340498976#6"/>
    <trip id="bus171" type="bus_bus" depart="1390.92" departLane="best" from="23017852#2" to="-4381079#3"/>
    <trip id="bus172" type="bus_bus" depart="1399.05" departLane="best" from="35578576#1" to="4597324#4"/>
    <trip id="bus173" type="bus_bus" depart="1407.18" departLane="best" from="-243854725#4" to="25294729#0"/>
    <trip id="bus174" type="bus_bus" depart="1415.32" departLane="best" from="4570580#3" to="-23017852#2"/>
    <trip id="bus176" type="bus_bus" depart="1431.59" departLane="best" from="-202156991#1" to="-147066248#3"/>
    <trip id="bus178" type="bus_bus" depart="1447.85" departLane="best" from="-195397541#2" to="4597325#1"/>
    <trip id="bus180" type="bus_bus" depart="1464.12" departLane="best" departSpeed="max" from="-22972470#1" to="83517336#0"/>
    <trip id="bus181" type="bus_bus" depart="1472.26" departLane="best" from="4610610#2" to="-77348147"/>
    <trip id="bus182" type="bus_bus" depart="1480.39" departLane="best" from="147066248#2" to="111833186#1"/>
    <trip id="bus183" type="bus_bus" depart="1488.52" departLane="best" departSpeed="max" from="171826985#0" to="-755551646#0"/>
    <trip id="bus185" type="bus_bus" depart="1504.79" departLane="best" from="-195397561#6" to="76212441#4"/>
    <trip id="bus186" type="bus_bus" depart="1512.93" departLane="best" from="292429062#2" to="4611714#8"/>
    <trip id="bus187" type="bus_bus" depart="1521.06" departLane="best" from="389101365#0" to="15973619#15"/>
    <trip id="bus189" type="bus_bus" depart="1537.33" departLane="best" from="-4592739" to="4611708#3"/>
    <trip id="bus191" type="bus_bus" depart="1553.60" departLane="best" from="153698384" to="4402014#0"/>
    <trip id="bus193" type="bus_bus" depart="1569.86" departLane="best" departSpeed="max" from="55495482#0" to="-4597324#2"/>
    <trip id="bus194" type="bus_bus" depart="1578.00" departLane="best" from="-77348147" to="-147066248#6"/>
    <trip id="bus196" type="bus_bus" depart="1594.27" departLane="best" from="-492340367#0" to="532727925#1"/>
    <trip id="bus197" type="bus_bus" depart="1602.40" departLane="best" departSpeed="max" from="36259518" to="-4611713#0"/>
    <trip id="bus198" type="bus_bus" depart="1610.53" departLane="best" from="-111833186#1" to="751602168"/>
    <trip id="bus199" type="bus_bus" depart="1618.67" departLane="best" from="-188240629#0" to="43231842#2"/>
    <trip id="bus200" type="bus_bus" depart="1626.80" departLane="best" from="168937986#3" to="4597320#1"/>
    <trip id="bus201" type="bus_bus" depart="1634.94" departLane="best" from="35557143#1" to="320420916#0"/>
    <trip id="bus202" type="bus_bus" depart="1643.07" departLane="best" from="168937986#5" to="4610610#2"/>
    <trip id="bus203" type="bus_bus" depart="1651.20" departLane="best" from="35557161#0" to="-55495482#0"/>
    <trip id="bus204" type="bus_bus" depart="1659.34" departLane="best" from="4570580#0" to="-67713117#1"/>
    <trip id="bus205" type="bus_bus" depart="1667.47" departLane="best" departSpeed="max" from="36259518" to="-4611710#0"/>
    <trip id="bus206" type="bus_bus" depart="1675.61" departLane="best" from="-4381079#3" to="-23121445#3"/>
    <trip id="bus207" type="bus_bus" depart="1683.74" departLane="best" from="-292429062#2" to="-23121445#2"/>
    <trip id="bus208" type="bus_bus" depart="1691.87" departLane="best" from="196850609#0" to="4597322#6"/>
    <trip id="bus209" type="bus_bus" depart="1700.01" departLane="best" from="-28016312#0" to="-4381079#2"/>
    <trip id="bus210" type="bus_bus" depart="1708.14" departLane="best" from="15973619#9" to="437325050#1"/>
    <trip id="bus211" type="bus_bus" depart="1716.28" departLane="best" departSpeed="max" from="78298215#0" to="210668637#1"/>
    <trip id="bus212" type="bus_bus" depart="1724.41" departLane="best" departSpeed="max" from="-4597324#4" to="-202156991#1"/>
    <trip id="bus213" type="bus_bus" depart="1732.54" departLane="best" departSpeed="max" from="-25294729#1" to="-120675240#3"/>
    <trip id="bus214" type="bus_bus" depart="1740.68" departLane="best" from="195411602#1" to="-4611711#0"/>
    <trip id="bus216" type="bus_bus" depart="1756.95" departLane="best" from="35578559" to="-23755739#4"/>
    <trip id="bus217" type="bus_bus" depart="1765.08" departLane="best" departSpeed="max" from="534588621#0" to="195104960#1"/>
    <trip id="bus218" type="bus_bus" depart="1773.21" departLane="best" from="534588621#1" to="24240246#2"/>
    <trip id="bus219" type="bus_bus" depart="1781.35" departLane="best" from="158023913#4" to="15973619#5"/>
    <trip id="bus220" type="bus_bus" depart="1789.48" departLane="best" from="-28016312#0" to="-158023913#6"/>
    <trip id="bus221" type="bus_bus" depart="1797.62" departLane="best" from="465376240#0" to="153698384"/>
    <trip id="bus223" type="bus_bus" depart="1813.88" departLane="best" departSpeed="max" from="-15973619#15" to="-28016312#0"/>
    <trip id="bus224" type="bus_bus" depart="1822.02" departLane="best" from="23017852#1" to="-534588621#1"/>
    <trip id="bus225" type="bus_bus" depart="1830.15" departLane="best" from="882389494" to="-23121445#1"/>
    <trip id="bus226" type="bus_bus" depart="1838.29" departLane="best" from="4597324#2" to="25294728"/>
    <trip id="bus227" type="bus_bus" depart="1846.42" departLane="best" from="4611696#4" to="-4412868"/>
    <trip id="bus228" type="bus_bus" depart="1854.55" departLane="best" departSpeed="max" from="195091665#0" to="164039095#1"/>
    <trip id="bus229" type="bus_bus" depart="1862.69" departLane="best" from="153698390#0" to="4773465#2"/>
    <trip id="bus230" type="bus_bus" depart="1870.82" departLane="best" from="85255870#0" to="-541295974"/>
    <trip id="bus231" type="bus_bus" depart="1878.96" departLane="best" from="24997595#1" to="25294729#1"/>
    <trip id="bus232" type="bus_bus" depart="1887.09" departLane="best" from="-339201177#0" to="-43376477#0"/>
    <trip id="bus233" type="bus_bus" depart="1895.22" departLane="best" departSpeed="max" from="-24997595#1" to="-173296880"/>
    <trip id="bus234" type="bus_bus" depart="1903.36" departLane="best" from="-109902441#0" to="164039095#1"/>
    <trip id="bus235" type="bus_bus" depart="1911.49" departLane="best" from="-38912785" to="4067932#1"/>
    <trip id="bus236" type="bus_bus" depart="1919.63" departLane="best" departSpeed="max" from="36259518" to="168935757#0"/>
    <trip id="bus237" type="bus_bus" depart="1927.76" departLane="best" from="34848160#2" to="681299267#0"/>
    <trip id="bus238" type="bus_bus" depart="1935.89" departLane="best" from="4611693#2" to="292429062#3"/>
    <trip id="bus239" type="bus_bus" depart="1944.03" departLane="best" from="326116285#0" to="705182550"/>
    <trip id="bus240" type="bus_bus" depart="1952.16" departLane="best" departSpeed="max" from="30721662#0" to="6228081"/>
    <trip id="bus241" type="bus_bus" depart="1960.30" departLane="best" from="-243854725#2" to="-55495482#0"/>
    <trip id="bus242" type="bus_bus" depart="1968.43" departLane="best" from="4588211#1" to="23809670#2"/>
    <trip id="bus243" type="bus_bus" depart="1976.56" departLane="best" from="-4610472#4" to="-23755739#2"/>
    <trip id="bus244" type="bus_bus" depart="1984.70" departLane="best" from="710761407#1" to="195397561#5"/>
    <trip id="bus245" type="bus_bus" depart="1992.83" departLane="best" from="169195795#5" to="-195091665#0"/>
    <trip id="bus246" type="bus_bus" depart="2000.97" departLane="best" from="-153698415#2" to="15973619#14"/>
    <trip id="bus247" type="bus_bus" depart="2009.10" departLane="best" from="-4611714#2" to="-4610472#4"/>
    <trip id="bus248" type="bus_bus" depart="2017.23" departLane="best" from="4773029#2" to="24240246#3"/>
    <trip id="bus249" type="bus_bus" depart="2025.37" departLane="best" from="753316506" to="930343902"/>
    <trip id="bus250" type="bus_bus" depart="2033.50" departLane="best" from="-156364570#0" to="4588222#1"/>
    <trip id="bus251" type="bus_bus" depart="2041.64" departLane="best" from="15971197#0" to="326116285#3"/>
    <trip id="bus252" type="bus_bus" depart="2049.77" departLane="best" from="67713117#5" to="-339201185"/>
    <trip id="bus254" type="bus_bus" depart="2066.04" departLane="best" from="169195795#0" to="-195105328#1"/>
    <trip id="bus255" type="bus_bus" depart="2074.17" departLane="best" from="-55495482#1" to="-67713117#4"/>
    <trip id="bus256" type="bus_bus" depart="2082.31" departLane="best" from="339201177#4" to="4773463#2"/>
    <trip id="bus257" type="bus_bus" depart="2090.44" departLane="best" from="-4610472#1" to="72157174#1"/>
    <trip id="bus259" type="bus_bus" depart="2106.71" departLane="best" from="111833185#1" to="202156995#1"/>
    <trip id="bus261" type="bus_bus" depart="2122.98" departLane="best" from="202156995#1" to="153698415#2"/>
    <trip id="bus262" type="bus_bus" depart="2131.11" departLane="best" from="-28251222#1" to="108031933#0"/>
    <trip id="bus263" type="bus_bus" depart="2139.24" departLane="best" from="4588222#1" to="292429063#0"/>
    <trip id="bus264" type="bus_bus" depart="2147.38" departLane="best" from="4597322#3" to="-427637455"/>
    <trip id="bus265" type="bus_bus" depart="2155.51" departLane="best" from="202817674#5" to="68647306#3"/>
    <trip id="bus266" type="bus_bus" depart="2163.65" departLane="best" departSpeed="max" from="153698387#0" to="35578576#1"/>
    <trip id="bus267" type="bus_bus" depart="2171.78" departLane="best" departSpeed="max" from="-22972470#1" to="77348147"/>
    <trip id="bus268" type="bus_bus" depart="2179.91" departLane="best" from="243854725#3" to="-4597322#3"/>
    <trip id="bus269" type="bus_bus" depart="2188.05" departLane="best" from="-24242882#1" to="234463931#1"/>
    <trip id="bus270" type="bus_bus" depart="2196.18" departLane="best" from="210668637#1" to="-195397541#1"/>
    <trip id="bus271" type="bus_bus" depart="2204.32" departLane="best" from="154041920" to="-23121445#0"/>
    <trip id="bus273" type="bus_bus" depart="2220.58" departLane="best" from="427637455" to="202156991#2"/>
    <trip id="bus274" type="bus_bus" depart="2228.72" departLane="best" from="-4597322#4" to="4611718#1"/>
    <trip id="bus275" type="bus_bus" depart="2236.85" departLane="best" from="78298215#2" to="-4597324#2"/>
    <trip id="bus276" type="bus_bus" depart="2244.99" departLane="best" from="210668637#0" to="136571494#1"/>
    <trip id="bus277" type="bus_bus" depart="2253.12" departLane="best" departSpeed="max" from="67713451#0" to="202156991#2"/>
    <trip id="bus279" type="bus_bus" depart="2269.39" departLane="best" from="-4597324#0" to="4610608"/>
    <trip id="bus280" type="bus_bus" depart="2277.52" departLane="best" departSpeed="max" from="171826985#0" to="4611713#1"/>
    <trip id="bus281" type="bus_bus" depart="2285.66" departLane="best" from="23809670#2" to="930343901#4"/>
    <trip id="bus282" type="bus_bus" depart="2293.79" departLane="best" from="168937986#4" to="-25945966"/>
    <trip id="bus283" type="bus_bus" depart="2301.92" departLane="best" from="196850609#2" to="-76212441#6"/>
    <trip id="bus284" type="bus_bus" depart="2310.06" departLane="best" from="210668637#0" to="23121445#0"/>
    <trip id="bus285" type="bus_bus" depart="2318.19" departLane="best" from="153698402#5" to="-66071366#4"/>
    <trip id="bus286" type="bus_bus" depart="2326.33" departLane="best" from="23121445#5" to="-4588219#0"/>
    <trip id="bus287" type="bus_bus" depart="2334.46" departLane="best" from="4610479#0" to="-153698391"/>