<?xml version="1.0" encoding="UTF-8"?>

<!-- generated on 08/21/21 21:39:27 by Eclipse SUMO GUI Version 1.7.0
-->

<configuration xmlns:xsi="http://www.w3.org/2001/XMLSchema-instance" xsi:noNamespaceSchemaLocation="http://sumo.dlr.de/xsd/sumoConfiguration.xsd">

    <input>
        <net-file value="D:\simulator\SUMOTutorials\helloWorld\helloWorld.net.xml"/>
        <route-files value="D:\simulator\SUMOTutorials\helloWorld\helloWorld.rou.xml"/>
    </input>

</configuration>
