<?xml version="1.0" encoding="UTF-8"?>

<!-- generated on 08/22/21 21:23:23 by Eclipse SUMO netedit Version 1.7.0
<configuration xmlns:xsi="http://www.w3.org/2001/XMLSchema-instance" xsi:noNamespaceSchemaLocation="http://sumo.dlr.de/xsd/netconvertConfiguration.xsd">

    <output>
        <output-file value="D:\simulator\SUMOTutorials\circles\circles.net.xml"/>
    </output>

    <processing>
        <offset.disable-normalization value="true"/>
    </processing>

    <junctions>
        <no-turnarounds value="true"/>
    </junctions>

    <report>
        <aggregate-warnings value="5"/>
    </report>

</configuration>
-->

<net version="1.6" junctionCornerDetail="5" limitTurnSpeed="5.50" xmlns:xsi="http://www.w3.org/2001/XMLSchema-instance" xsi:noNamespaceSchemaLocation="http://sumo.dlr.de/xsd/net_file.xsd">

    <location netOffset="0.00,0.00" convBoundary="-59.09,5.19,91.99,84.42" origBoundary="10000000000.00,10000000000.00,-10000000000.00,-10000000000.00" projParameter="!"/>

    <edge id=":gneJ2_0" function="internal">
        <lane id=":gneJ2_0_0" index="0" speed="13.89" length="0.84" shape="-12.36,82.62 -12.12,82.70 -11.95,82.74 -11.78,82.73 -11.54,82.70"/>
    </edge>
    <edge id=":gneJ3_0" function="internal">
        <lane id=":gneJ3_0_0" index="0" speed="13.89" length="0.99" shape="56.97,71.53 57.26,71.47 57.45,71.41 57.62,71.29 57.83,71.09"/>
    </edge>
    <edge id=":gneJ4_0" function="internal">
        <lane id=":gneJ4_0_0" index="0" speed="3.91" length="2.39" shape="88.81,40.91 89.21,40.40 89.36,39.87 89.28,39.33 88.95,38.77"/>
    </edge>
    <edge id=":gneJ5_0" function="internal">
        <lane id=":gneJ5_0_0" index="0" speed="4.25" length="1.24" shape="70.75,15.64 70.52,15.36 70.32,15.19 70.07,15.10 69.72,15.04"/>
    </edge>
    <edge id=":gneJ6_0" function="internal">
        <lane id=":gneJ6_0_0" index="0" speed="13.89" length="0.22" shape="12.76,7.03 12.70,7.02 12.66,7.01 12.61,7.01 12.55,7.01"/>
    </edge>
    <edge id=":gneJ7_0" function="internal">
        <lane id=":gneJ7_0_0" index="0" speed="3.97" length="1.93" shape="-43.92,6.80 -44.42,6.86 -44.84,7.05 -45.17,7.37 -45.41,7.82"/>
    </edge>
    <edge id=":gneJ8_0" function="internal">
        <lane id=":gneJ8_0_0" index="0" speed="4.31" length="1.15" shape="-57.17,37.80 -57.29,38.12 -57.33,38.35 -57.30,38.58 -57.19,38.90"/>
    </edge>
    <edge id=":gneJ9_0" function="internal">
        <lane id=":gneJ9_0_0" index="0" speed="4.12" length="1.41" shape="-46.81,69.05 -46.66,69.38 -46.45,69.65 -46.19,69.87 -45.86,70.03"/>
    </edge>

    <edge id="edge1" from="gneJ2" to="gneJ3" priority="-1">
        <lane id="edge1_0" index="0" speed="13.89" length="69.41" shape="-11.54,82.70 56.97,71.53"/>
    </edge>
    <edge id="edge2" from="gneJ3" to="gneJ4" priority="-1">
        <lane id="edge2_0" index="0" speed="13.89" length="43.26" shape="57.83,71.09 88.81,40.91"/>
    </edge>
    <edge id="gneE3" from="gneJ4" to="gneJ5" priority="-1">
        <lane id="gneE3_0" index="0" speed="13.89" length="29.44" shape="88.95,38.77 70.75,15.64"/>
    </edge>
    <edge id="gneE4" from="gneJ5" to="gneJ6" priority="-1">
        <lane id="gneE4_0" index="0" speed="13.89" length="57.51" shape="69.72,15.04 12.76,7.03"/>
    </edge>
    <edge id="gneE5" from="gneJ6" to="gneJ7" priority="-1">
        <lane id="gneE5_0" index="0" speed="13.89" length="56.47" shape="12.55,7.01 -43.92,6.80"/>
    </edge>
    <edge id="gneE6" from="gneJ7" to="gneJ8" priority="-1">
        <lane id="gneE6_0" index="0" speed="13.89" length="32.20" shape="-45.41,7.82 -57.17,37.80"/>
    </edge>
    <edge id="gneE7" from="gneJ8" to="gneJ9" priority="-1">
        <lane id="gneE7_0" index="0" speed="13.89" length="31.88" shape="-57.19,38.90 -46.81,69.05"/>
    </edge>
    <edge id="gneE8" from="gneJ9" to="gneJ2" priority="-1">
        <lane id="gneE8_0" index="0" speed="13.89" length="35.79" shape="-45.86,70.03 -12.36,82.62"/>
    </edge>

    <junction id="gneJ2" type="priority" x="-12.12" y="84.42" incLanes="gneE8_0" intLanes=":gneJ2_0_0" shape="-11.28,84.28 -11.79,81.12 -12.92,84.12 -12.33,84.32 -12.12,84.36 -11.89,84.36 -11.63,84.33">
        <request index="0" response="0" foes="0" cont="0"/>
    </junction>
    <junction id="gneJ3" type="priority" x="58.23" y="72.94" incLanes="edge1_0" intLanes=":gneJ3_0_0" shape="58.95,72.24 56.71,69.95 57.23,73.11 57.94,72.96 58.19,72.87 58.41,72.73 58.65,72.53">
        <request index="0" response="0" foes="0" cont="0"/>
    </junction>
    <junction id="gneJ4" type="priority" x="91.99" y="40.04" incLanes="edge2_0" intLanes=":gneJ4_0_0" shape="90.21,37.78 87.70,39.76 89.93,42.05 90.88,40.68 91.03,39.98 90.97,39.26 90.70,38.53">
        <request index="0" response="0" foes="0" cont="0"/>
    </junction>
    <junction id="gneJ5" type="priority" x="71.21" y="13.64" incLanes="gneE3_0" intLanes=":gneJ5_0_0" shape="69.49,16.63 72.01,14.65 71.41,13.96 71.14,13.76 70.84,13.63 70.45,13.54 69.94,13.46">
        <request index="0" response="0" foes="0" cont="0"/>
    </junction>
    <junction id="gneJ6" type="priority" x="12.77" y="5.41" incLanes="gneE4_0" intLanes=":gneJ6_0_0" shape="12.54,8.61 12.99,5.44 12.83,5.42 12.77,5.41 12.65,5.41">
        <request index="0" response="0" foes="0" cont="0"/>
    </junction>
    <junction id="gneJ7" type="priority" x="-46.10" y="5.19" incLanes="gneE5_0" intLanes=":gneJ7_0_0" shape="-43.92,8.40 -43.91,5.20 -45.22,5.43 -45.76,5.71 -46.22,6.10 -46.60,6.61 -46.90,7.23">
        <request index="0" response="0" foes="0" cont="0"/>
    </junction>
    <junction id="gneJ8" type="priority" x="-59.09" y="38.31" incLanes="gneE6_0" intLanes=":gneJ8_0_0" shape="-58.71,39.43 -55.68,38.38 -58.66,37.22 -58.93,38.01 -58.97,38.31 -58.94,38.62 -58.86,38.97">
        <request index="0" response="0" foes="0" cont="0"/>
    </junction>
    <junction id="gneJ9" type="priority" x="-47.84" y="71.00" incLanes="gneE7_0" intLanes=":gneJ9_0_0" shape="-46.43,71.53 -45.30,68.53 -48.33,69.57 -47.90,70.42 -47.61,70.77 -47.26,71.07 -46.87,71.32">
        <request index="0" response="0" foes="0" cont="0"/>
    </junction>

    <connection from="edge1" to="edge2" fromLane="0" toLane="0" via=":gneJ3_0_0" dir="s" state="M"/>
    <connection from="edge2" to="gneE3" fromLane="0" toLane="0" via=":gneJ4_0_0" dir="r" state="M"/>
    <connection from="gneE3" to="gneE4" fromLane="0" toLane="0" via=":gneJ5_0_0" dir="s" state="M"/>
    <connection from="gneE4" to="gneE5" fromLane="0" toLane="0" via=":gneJ6_0_0" dir="s" state="M"/>
    <connection from="gneE5" to="gneE6" fromLane="0" toLane="0" via=":gneJ7_0_0" dir="r" state="M"/>
    <connection from="gneE6" to="gneE7" fromLane="0" toLane="0" via=":gneJ8_0_0" dir="s" state="M"/>
    <connection from="gneE7" to="gneE8" fromLane="0" toLane="0" via=":gneJ9_0_0" dir="r" state="M"/>
    <connection from="gneE8" to="edge1" fromLane="0" toLane="0" via=":gneJ2_0_0" dir="s" state="M"/>

    <connection from=":gneJ2_0" to="edge1" fromLane="0" toLane="0" dir="s" state="M"/>
    <connection from=":gneJ3_0" to="edge2" fromLane="0" toLane="0" dir="s" state="M"/>
    <connection from=":gneJ4_0" to="gneE3" fromLane="0" toLane="0" dir="r" state="M"/>
    <connection from=":gneJ5_0" to="gneE4" fromLane="0" toLane="0" dir="s" state="M"/>
    <connection from=":gneJ6_0" to="gneE5" fromLane="0" toLane="0" dir="s" state="M"/>
    <connection from=":gneJ7_0" to="gneE6" fromLane="0" toLane="0" dir="r" state="M"/>
    <connection from=":gneJ8_0" to="gneE7" fromLane="0" toLane="0" dir="s" state="M"/>
    <connection from=":gneJ9_0" to="gneE8" fromLane="0" toLane="0" dir="r" state="M"/>

</net>
