<?xml version="1.0" encoding="UTF-8"?>

<!-- generated on 08/22/21 22:38:16 by Eclipse SUMO netedit Version 1.7.0
<configuration xmlns:xsi="http://www.w3.org/2001/XMLSchema-instance" xsi:noNamespaceSchemaLocation="http://sumo.dlr.de/xsd/netconvertConfiguration.xsd">

    <input>
        <sumo-net-file value="D:\simulator\SUMOTutorials\circles\circle2.net.xml"/>
    </input>

    <output>
        <output-file value="D:\simulator\SUMOTutorials\circles\circle2.net.xml"/>
    </output>

    <processing>
        <geometry.min-radius.fix.railways value="false"/>
        <geometry.max-grade.fix value="false"/>
        <offset.disable-normalization value="true"/>
        <lefthand value="false"/>
    </processing>

    <junctions>
        <no-turnarounds value="true"/>
        <junctions.corner-detail value="5"/>
        <junctions.limit-turn-speed value="5.5"/>
        <rectangular-lane-cut value="false"/>
    </junctions>

    <pedestrian>
        <walkingareas value="false"/>
    </pedestrian>

    <netedit>
        <additional-files value="D:\simulator\SUMOTutorials\circles\circle2.add.xml"/>
        <route-files value="D:\simulator\SUMOTutorials\circles\circle2.rou.xml"/>
    </netedit>

    <report>
        <aggregate-warnings value="5"/>
    </report>

</configuration>
-->

<additional xmlns:xsi="http://www.w3.org/2001/XMLSchema-instance" xsi:noNamespaceSchemaLocation="http://sumo.dlr.de/xsd/additional_file.xsd">
    <rerouter id="rerouter_0" edges="gneE5" pos="20.23,9.02">
        <interval begin="0.00" end="3600.00">
            <destProbReroute id="gneE1"/>
        </interval>
    </rerouter>
    <rerouter id="rerouter_1" edges="gneE5" pos="16.93,9.68"/>
    <rerouter id="rerouter_2" edges="gneE1" pos="30.32,82.99">
        <interval begin="0.00" end="3600.00">
            <destProbReroute id="gneE5"/>
        </interval>
    </rerouter>
</additional>
